lig_206
     RDKit          3D

 30 31  0  0  1  0  0  0  0  0999 V2000
    1.1367    2.6738    0.6426 C   0  0  0  0  0  0  0  0  0  0  0  0
    0.4263    2.2363    1.7715 C   0  0  0  0  0  0  0  0  0  0  0  0
    0.4060    0.7432   -0.5605 C   0  0  0  0  0  0  0  0  0  0  0  0
   -0.3020    0.3062    0.5664 C   0  0  0  0  0  0  0  0  0  0  0  0
    1.1250    1.9268   -0.5376 C   0  0  0  0  0  0  0  0  0  0  0  0
   -0.3059    1.0479    1.7363 C   0  0  0  0  0  0  0  0  0  0  0  0
    0.2290   -0.1978   -1.7119 C   0  0  0  0  0  0  0  0  0  0  0  0
   -1.0381   -0.9663    0.2693 C   0  0  1  0  0  0  0  0  0  0  0  0
   -0.3086   -1.4375   -0.9941 C   0  0  0  0  0  0  0  0  0  0  0  0
   -0.7296   -0.9206    5.3690 C   0  0  0  0  0  0  0  0  0  0  0  0
   -0.0887   -0.4143    4.0961 C   0  0  0  0  0  0  0  0  0  0  0  0
   -1.5298    1.7519    3.9330 O   0  0  0  0  0  0  0  0  0  0  0  0
   -2.3033   -0.3026    2.6963 O   0  0  0  0  0  0  0  0  0  0  0  0
    1.8039    2.3607   -1.6305 O   0  0  0  0  0  0  0  0  0  0  0  0
   -0.9492   -1.9424    1.2900 O   0  0  0  0  0  0  0  0  0  0  0  0
    0.7227   -2.2578   -0.6738 F   0  0  0  0  0  0  0  0  0  0  0  0
   -1.1416   -2.1328   -1.7979 F   0  0  0  0  0  0  0  0  0  0  0  0
   -1.2232    0.5676    3.1408 S   0  0  0  0  0  0  0  0  0  0  0  0
    1.6934    3.6063    0.6927 H   0  0  0  0  0  0  0  0  0  0  0  0
    0.4456    2.8443    2.6727 H   0  0  0  0  0  0  0  0  0  0  0  0
   -0.4989    0.2024   -2.4243 H   0  0  0  0  0  0  0  0  0  0  0  0
    1.1779   -0.4094   -2.2128 H   0  0  0  0  0  0  0  0  0  0  0  0
   -2.0975   -0.7461    0.0595 H   0  0  0  0  0  0  0  0  0  0  0  0
   -1.0466   -0.0824    5.9974 H   0  0  0  0  0  0  0  0  0  0  0  0
   -1.6083   -1.5353    5.1483 H   0  0  0  0  0  0  0  0  0  0  0  0
   -0.0289   -1.5350    5.9438 H   0  0  0  0  0  0  0  0  0  0  0  0
    0.2312   -1.2454    3.4621 H   0  0  0  0  0  0  0  0  0  0  0  0
    0.7769    0.2164    4.3172 H   0  0  0  0  0  0  0  0  0  0  0  0
    2.2416    3.2063   -1.4178 H   0  0  0  0  0  0  0  0  0  0  0  0
   -1.4581   -2.7163    0.9924 H   0  0  0  0  0  0  0  0  0  0  0  0
  1  2  2  0
  1  5  1  0
  2  6  1  0
  3  4  1  0
  3  5  2  0
  3  7  1  0
  4  6  2  0
  4  8  1  0
  5 14  1  0
  6 18  1  0
  7  9  1  0
  8  9  1  0
  8 15  1  0
  9 16  1  0
  9 17  1  0
 10 11  1  0
 11 18  1  0
 12 18  2  0
 13 18  2  0
  1 19  1  0
  2 20  1  0
  7 21  1  0
  7 22  1  0
  8 23  1  6
 10 24  1  0
 10 25  1  0
 10 26  1  0
 11 27  1  0
 11 28  1  0
 14 29  1  0
 15 30  1  0
M  END
$$$$
lig_215
     RDKit          3D

 27 28  0  0  1  0  0  0  0  0999 V2000
    1.1367    2.6738    0.6426 C   0  0  0  0  0  0  0  0  0  0  0  0
    0.4263    2.2363    1.7715 C   0  0  0  0  0  0  0  0  0  0  0  0
    0.4060    0.7432   -0.5605 C   0  0  0  0  0  0  0  0  0  0  0  0
   -0.3020    0.3062    0.5664 C   0  0  0  0  0  0  0  0  0  0  0  0
    1.1250    1.9268   -0.5376 C   0  0  0  0  0  0  0  0  0  0  0  0
   -0.3059    1.0479    1.7363 C   0  0  0  0  0  0  0  0  0  0  0  0
    0.2290   -0.1978   -1.7119 C   0  0  0  0  0  0  0  0  0  0  0  0
   -1.0381   -0.9663    0.2693 C   0  0  1  0  0  0  0  0  0  0  0  0
   -0.3086   -1.4375   -0.9941 C   0  0  0  0  0  0  0  0  0  0  0  0
   -0.0756   -0.4136    4.0865 C   0  0  0  0  0  0  0  0  0  0  0  0
   -1.5308    1.7721    3.9021 O   0  0  0  0  0  0  0  0  0  0  0  0
   -2.3035   -0.3133    2.7129 O   0  0  0  0  0  0  0  0  0  0  0  0
    1.8039    2.3607   -1.6305 O   0  0  0  0  0  0  0  0  0  0  0  0
   -0.9492   -1.9424    1.2900 O   0  0  0  0  0  0  0  0  0  0  0  0
    0.7227   -2.2578   -0.6738 F   0  0  0  0  0  0  0  0  0  0  0  0
   -1.1416   -2.1328   -1.7979 F   0  0  0  0  0  0  0  0  0  0  0  0
   -1.2232    0.5676    3.1408 S   0  0  0  0  0  0  0  0  0  0  0  0
   -0.9063   -0.9876    5.5354 Cl  0  0  0  0  0  0  0  0  0  0  0  0
    1.6934    3.6063    0.6927 H   0  0  0  0  0  0  0  0  0  0  0  0
    0.4456    2.8443    2.6727 H   0  0  0  0  0  0  0  0  0  0  0  0
   -0.4989    0.2024   -2.4243 H   0  0  0  0  0  0  0  0  0  0  0  0
    1.1779   -0.4094   -2.2128 H   0  0  0  0  0  0  0  0  0  0  0  0
   -2.0975   -0.7461    0.0595 H   0  0  0  0  0  0  0  0  0  0  0  0
    0.2415   -1.2679    3.4852 H   0  0  0  0  0  0  0  0  0  0  0  0
    0.7739    0.2064    4.3788 H   0  0  0  0  0  0  0  0  0  0  0  0
    2.2416    3.2063   -1.4178 H   0  0  0  0  0  0  0  0  0  0  0  0
   -1.4581   -2.7163    0.9924 H   0  0  0  0  0  0  0  0  0  0  0  0
  1  2  2  0
  1  5  1  0
  2  6  1  0
  3  4  1  0
  3  5  2  0
  3  7  1  0
  4  6  2  0
  4  8  1  0
  5 13  1  0
  6 17  1  0
  7  9  1  0
  8  9  1  0
  8 14  1  0
  9 15  1  0
  9 16  1  0
 10 17  1  0
 10 18  1  0
 11 17  2  0
 12 17  2  0
  1 19  1  0
  2 20  1  0
  7 21  1  0
  7 22  1  0
  8 23  1  6
 10 24  1  0
 10 25  1  0
 13 26  1  0
 14 27  1  0
M  END
$$$$
lig_25
     RDKit          3D

 27 28  0  0  1  0  0  0  0  0999 V2000
    1.1367    2.6738    0.6426 C   0  0  0  0  0  0  0  0  0  0  0  0
    0.4263    2.2363    1.7715 C   0  0  0  0  0  0  0  0  0  0  0  0
    0.4060    0.7432   -0.5605 C   0  0  0  0  0  0  0  0  0  0  0  0
   -0.3020    0.3062    0.5664 C   0  0  0  0  0  0  0  0  0  0  0  0
    1.1250    1.9268   -0.5376 C   0  0  0  0  0  0  0  0  0  0  0  0
   -0.3059    1.0479    1.7363 C   0  0  0  0  0  0  0  0  0  0  0  0
    0.2290   -0.1978   -1.7119 C   0  0  0  0  0  0  0  0  0  0  0  0
   -1.0381   -0.9663    0.2693 C   0  0  1  0  0  0  0  0  0  0  0  0
   -0.3086   -1.4375   -0.9941 C   0  0  0  0  0  0  0  0  0  0  0  0
   -0.0949   -0.4125    4.0969 C   0  0  0  0  0  0  0  0  0  0  0  0
   -2.2992   -0.3200    2.7221 O   0  0  0  0  0  0  0  0  0  0  0  0
   -1.5286    1.7690    3.9038 O   0  0  0  0  0  0  0  0  0  0  0  0
    1.8039    2.3607   -1.6305 O   0  0  0  0  0  0  0  0  0  0  0  0
   -0.9492   -1.9424    1.2900 O   0  0  0  0  0  0  0  0  0  0  0  0
    0.7227   -2.2578   -0.6738 F   0  0  0  0  0  0  0  0  0  0  0  0
   -1.1416   -2.1328   -1.7979 F   0  0  0  0  0  0  0  0  0  0  0  0
    0.9963    0.3089    4.4601 F   0  0  0  0  0  0  0  0  0  0  0  0
   -0.6798   -0.8404    5.2430 F   0  0  0  0  0  0  0  0  0  0  0  0
   -1.2232    0.5676    3.1408 S   0  0  0  0  0  0  0  0  0  0  0  0
    1.6934    3.6063    0.6927 H   0  0  0  0  0  0  0  0  0  0  0  0
    0.4456    2.8443    2.6727 H   0  0  0  0  0  0  0  0  0  0  0  0
   -0.4989    0.2024   -2.4243 H   0  0  0  0  0  0  0  0  0  0  0  0
    1.1779   -0.4094   -2.2128 H   0  0  0  0  0  0  0  0  0  0  0  0
   -2.0975   -0.7461    0.0595 H   0  0  0  0  0  0  0  0  0  0  0  0
    0.2310   -1.2755    3.5112 H   0  0  0  0  0  0  0  0  0  0  0  0
    2.2416    3.2063   -1.4178 H   0  0  0  0  0  0  0  0  0  0  0  0
   -1.4581   -2.7163    0.9924 H   0  0  0  0  0  0  0  0  0  0  0  0
  1  2  2  0
  1  5  1  0
  2  6  1  0
  3  4  1  0
  3  5  2  0
  3  7  1  0
  4  6  2  0
  4  8  1  0
  5 13  1  0
  6 19  1  0
  7  9  1  0
  8  9  1  0
  8 14  1  0
  9 15  1  0
  9 16  1  0
 10 17  1  0
 10 18  1  0
 10 19  1  0
 11 19  2  0
 12 19  2  0
  1 20  1  0
  2 21  1  0
  7 22  1  0
  7 23  1  0
  8 24  1  6
 10 25  1  0
 13 26  1  0
 14 27  1  0
M  END
$$$$
lig_E8
     RDKit          3D

 46 48  0  0  1  0  0  0  0  0999 V2000
   22.1057   42.9020    2.5721 H   0  0  0  0  0  0  0  0  0  0  0  0
   22.1665   42.1215    3.3179 C   0  0  0  0  0  0  0  0  0  0  0  0
   21.0234   41.9085    4.0059 N   0  0  0  0  0  0  0  0  0  0  0  0
   21.0269   40.8926    4.9007 C   0  0  0  0  0  0  0  0  0  0  0  0
   19.7297   40.6063    5.5276 C   0  0  0  0  0  0  0  0  0  0  0  0
   18.6921   40.0881    4.7250 C   0  0  0  0  0  0  0  0  0  0  0  0
   18.8625   39.9132    3.6723 H   0  0  0  0  0  0  0  0  0  0  0  0
   17.4356   39.7764    5.2715 C   0  0  0  0  0  0  0  0  0  0  0  0
   16.6597   39.3635    4.6425 H   0  0  0  0  0  0  0  0  0  0  0  0
   17.2014   39.9801    6.6404 C   0  0  0  0  0  0  0  0  0  0  0  0
   16.2415   39.7364    7.0731 H   0  0  0  0  0  0  0  0  0  0  0  0
   18.2204   40.5072    7.4522 C   0  0  0  0  0  0  0  0  0  0  0  0
   17.9075   40.7940    9.1229 Cl  0  0  0  0  0  0  0  0  0  0  0  0
   19.4815   40.8214    6.9028 C   0  0  0  0  0  0  0  0  0  0  0  0
   20.6893   41.5233    7.9242 Cl  0  0  0  0  0  0  0  0  0  0  0  0
   22.1939   40.1219    5.1239 C   0  0  0  0  0  0  0  0  0  0  0  0
   22.2219   39.0790    6.0482 N   0  0  0  0  0  0  0  0  0  0  0  0
   21.3977   38.7855    6.5509 H   0  0  0  0  0  0  0  0  0  0  0  0
   23.0576   38.5176    6.1817 H   0  0  0  0  0  0  0  0  0  0  0  0
   23.3298   40.3312    4.4269 N   0  0  0  0  0  0  0  0  0  0  0  0
   23.3209   41.3100    3.4842 C   0  0  0  0  0  0  0  0  0  0  0  0
   24.4515   41.4465    2.6441 N   0  0  0  0  0  0  0  0  0  0  0  0
   25.5501   40.4847    2.6933 C   0  0  0  0  0  0  0  0  0  0  0  0
   25.8471   40.2607    1.6705 H   0  0  0  0  0  0  0  0  0  0  0  0
   25.2573   39.5277    3.1285 H   0  0  0  0  0  0  0  0  0  0  0  0
   26.7372   41.0823    3.4633 C   0  0  0  0  0  0  0  0  0  0  0  0
   27.5790   40.3852    3.4403 H   0  0  0  0  0  0  0  0  0  0  0  0
   26.4515   41.1641    4.5133 H   0  0  0  0  0  0  0  0  0  0  0  0
   27.1737   42.4772    2.9222 C   0  0  0  0  0  0  0  0  0  0  0  0
   27.8786   42.3512    1.5560 C   0  0  0  0  0  0  0  0  0  0  0  0
   27.2548   41.8730    0.8036 H   0  0  0  0  0  0  0  0  0  0  0  0
   28.1632   43.3306    1.1637 H   0  0  0  0  0  0  0  0  0  0  0  0
   28.7910   41.7599    1.6394 H   0  0  0  0  0  0  0  0  0  0  0  0
   28.2222   43.0755    3.8634 C   0  0  0  0  0  0  0  0  0  0  0  0
   28.7341   43.9120    3.4028 H   0  0  0  0  0  0  0  0  0  0  0  0
   28.9794   42.3227    4.0886 H   0  0  0  0  0  0  0  0  0  0  0  0
   27.6369   43.5198    5.1249 N   0  0  0  0  0  0  0  0  0  0  0  0
   28.3811   43.7907    5.7577 H   0  0  0  0  0  0  0  0  0  0  0  0
   27.1220   42.7650    5.5724 H   0  0  0  0  0  0  0  0  0  0  0  0
   25.9293   43.3941    2.7767 C   0  0  0  0  0  0  0  0  0  0  0  0
   25.5344   43.6791    3.7522 H   0  0  0  0  0  0  0  0  0  0  0  0
   26.2073   44.3225    2.2842 H   0  0  0  0  0  0  0  0  0  0  0  0
   24.7862   42.7185    2.0103 C   0  0  0  0  0  0  0  0  0  0  0  0
   25.0930   42.5109    0.9900 H   0  0  0  0  0  0  0  0  0  0  0  0
   23.9508   43.4079    1.9334 H   0  0  0  0  0  0  0  0  0  0  0  0
   26.9998   44.3134    4.9976 H   0  0  0  0  0  0  0  0  0  0  0  0
  1  2  1  0
  2 21  2  0
  2  3  1  0
  3  4  2  0
  4  5  1  0
  4 16  1  0
  5 14  1  0
  5  6  2  0
  6  7  1  0
  6  8  1  0
  8  9  1  0
  8 10  2  0
 10 11  1  0
 10 12  1  0
 12 13  1  0
 12 14  2  0
 14 15  1  0
 16 17  1  0
 16 20  2  0
 17 18  1  0
 17 19  1  0
 20 21  1  0
 21 22  1  0
 22 43  1  0
 22 23  1  0
 23 24  1  0
 23 25  1  0
 23 26  1  0
 26 27  1  0
 26 28  1  0
 26 29  1  0
 29 30  1  0
 29 34  1  0
 29 40  1  0
 30 31  1  0
 30 32  1  0
 30 33  1  0
 34 35  1  0
 34 36  1  0
 34 37  1  0
 37 38  1  0
 37 39  1  0
 37 46  1  0
 40 41  1  0
 40 42  1  0
 40 43  1  0
 43 44  1  0
 43 45  1  0
M  CHG  1  37   1
M  END
>  <s_m_source_file>  (4) 
ligprep_shp2.smi

>  <i_m_source_file_index>  (4) 
23

>  <i_lp_mmshare_version>  (4) 
53161

>  <i_f3d_flags>  (4) 
0

>  <s_epik_input>  (4) 
W05IMl1bQ0gyXUMxKFtDSDNdKVtDSDJdW0NIMl1OKFtDSDJdW0NIMl0xKWMobmMyW05IMl0pW2NIXW5jMi1jM1tjSF1bY0hdW2NIXWMoQ2wpYzNDbA==

>  <s_epik_cmdline>  (4) 
J2VwaWtfcHl0aG9uJywgJy1waHQnLCAnMC4wJywgJy1waCcsICc3LjQnLCAnLXRuJywgJzgnLCAnLW1hJywgJzUwMCcsICctaW1hZScsICc8aW5maWxlLm1hZT4nLCAnLW9tYWUnLCAnPG91dGZpbGUubWFlPic=

>  <r_lp_tautomer_probability>  (4) 
1

>  <r_epik_Ionization_Penalty>  (4) 
  0.0014

>  <r_epik_Ionization_Penalty_Charging>  (4) 
  0.0009

>  <r_epik_Ionization_Penalty_Neutral>  (4) 
  0.0004

>  <r_epik_State_Penalty>  (4) 
 -0.0000

>  <r_epik_Charging_Adjusted_Penalty>  (4) 
0.000925517

>  <i_epik_Tot_Q>  (4) 
1

>  <i_epik_Tot_abs_Q>  (4) 
1

>  <s_lp_Force_Field>  (4) 
S-OPLS

>  <r_lp_Energy>  (4) 
52.6514

>  <b_lp_Chiralities_Consistent>  (4) 
1

>  <s_lp_Variant>  (4) 
lig_E8-1

>  <s_i_glide_gridfile>  (4) 
glide-grid_SHP2-5EHR

>  <i_i_glide_lignum>  (4) 
23

>  <i_i_glide_rotatable_bonds>  (4) 
3

>  <r_i_docking_score>  (4) 
-9.10547861537298

>  <r_i_glide_ligand_efficiency>  (4) 
-0.379394942307207

>  <r_i_glide_ligand_efficiency_sa>  (4) 
-1.09436438387943

>  <r_i_glide_ligand_efficiency_ln>  (4) 
-2.17935885584669

>  <r_i_glide_gscore>  (4) 
-9.10547861537298

>  <r_i_glide_lipo>  (4) 
-2.53200564153811

>  <r_i_glide_hbond>  (4) 
-0.424132737305615

>  <r_i_glide_metal>  (4) 
-0

>  <r_i_glide_rewards>  (4) 
-1.19191787638678

>  <r_i_glide_evdw>  (4) 
-50.525447845459

>  <r_i_glide_ecoul>  (4) 
-19.0625534057617

>  <r_i_glide_erotb>  (4) 
0.428233042994739

>  <r_i_glide_esite>  (4) 
0

>  <r_i_glide_emodel>  (4) 
-110.103292284534

>  <r_i_glide_energy>  (4) 
-69.5880012512207

>  <r_i_glide_einternal>  (4) 
0.400281727313995

>  <i_i_glide_confnum>  (4) 
2

>  <i_i_glide_posenum>  (4) 
5

>  <r_i_glide_eff_state_penalty>  (4) 
-0

>  <r_i_glide_rmsd>  (4) 
0.0904308608727736

>  <s_glide_core_constrain_type>  (4) 
snapped_core_restrain

$$$$
lig_E9
     RDKit          3D

 43 45  0  0  1  0  0  0  0  0999 V2000
   22.0963   42.8857    2.5745 H   0  0  0  0  0  0  0  0  0  0  0  0
   22.1695   42.1095    3.3191 C   0  0  0  0  0  0  0  0  0  0  0  0
   21.0251   41.9004    4.0067 N   0  0  0  0  0  0  0  0  0  0  0  0
   21.0238   40.8839    4.8967 C   0  0  0  0  0  0  0  0  0  0  0  0
   19.7266   40.5918    5.5285 C   0  0  0  0  0  0  0  0  0  0  0  0
   18.6980   40.0532    4.7267 C   0  0  0  0  0  0  0  0  0  0  0  0
   18.8719   39.8700    3.6731 H   0  0  0  0  0  0  0  0  0  0  0  0
   17.4455   39.7300    5.2763 C   0  0  0  0  0  0  0  0  0  0  0  0
   16.6773   39.3069    4.6478 H   0  0  0  0  0  0  0  0  0  0  0  0
   17.2070   39.9409    6.6467 C   0  0  0  0  0  0  0  0  0  0  0  0
   16.2503   39.6819    7.0795 H   0  0  0  0  0  0  0  0  0  0  0  0
   18.2241   40.4800    7.4551 C   0  0  0  0  0  0  0  0  0  0  0  0
   17.9143   40.7603    9.1251 Cl  0  0  0  0  0  0  0  0  0  0  0  0
   19.4792   40.8084    6.9031 C   0  0  0  0  0  0  0  0  0  0  0  0
   20.6767   41.5213    7.9203 Cl  0  0  0  0  0  0  0  0  0  0  0  0
   22.1906   40.1181    5.1264 C   0  0  0  0  0  0  0  0  0  0  0  0
   22.2224   39.0748    6.0448 N   0  0  0  0  0  0  0  0  0  0  0  0
   21.4177   38.8184    6.5932 H   0  0  0  0  0  0  0  0  0  0  0  0
   23.0742   38.5564    6.2232 H   0  0  0  0  0  0  0  0  0  0  0  0
   23.3276   40.3293    4.4346 N   0  0  0  0  0  0  0  0  0  0  0  0
   23.3273   41.3082    3.4986 C   0  0  0  0  0  0  0  0  0  0  0  0
   24.4755   41.4455    2.6827 N   0  0  0  0  0  0  0  0  0  0  0  0
   24.7749   42.7222    2.0461 C   0  0  0  0  0  0  0  0  0  0  0  0
   23.9177   43.3748    1.9135 H   0  0  0  0  0  0  0  0  0  0  0  0
   25.1371   42.5249    1.0403 H   0  0  0  0  0  0  0  0  0  0  0  0
   25.8444   43.4652    2.8519 C   0  0  0  0  0  0  0  0  0  0  0  0
   25.4479   43.6887    3.8438 H   0  0  0  0  0  0  0  0  0  0  0  0
   26.0527   44.4314    2.3935 H   0  0  0  0  0  0  0  0  0  0  0  0
   27.1303   42.6258    2.9889 C   0  0  0  0  0  0  0  0  0  0  0  0
   27.7557   43.1542    3.7133 H   0  0  0  0  0  0  0  0  0  0  0  0
   27.9066   42.5306    1.6573 C   0  0  0  0  0  0  0  0  0  0  0  0
   27.5838   43.3211    0.9788 H   0  0  0  0  0  0  0  0  0  0  0  0
   27.7226   41.5884    1.1398 H   0  0  0  0  0  0  0  0  0  0  0  0
   29.3547   42.7225    1.8475 N   0  0  0  0  0  0  0  0  0  0  0  0
   29.8087   42.8019    0.9531 H   0  0  0  0  0  0  0  0  0  0  0  0
   29.7991   41.9292    2.3260 H   0  0  0  0  0  0  0  0  0  0  0  0
   26.7764   41.2395    3.5862 C   0  0  0  0  0  0  0  0  0  0  0  0
   27.6559   40.5977    3.6058 H   0  0  0  0  0  0  0  0  0  0  0  0
   26.4710   41.3708    4.6264 H   0  0  0  0  0  0  0  0  0  0  0  0
   25.6236   40.5479    2.8289 C   0  0  0  0  0  0  0  0  0  0  0  0
   25.3641   39.6114    3.3227 H   0  0  0  0  0  0  0  0  0  0  0  0
   25.9575   40.2602    1.8322 H   0  0  0  0  0  0  0  0  0  0  0  0
   29.5128   43.5635    2.3868 H   0  0  0  0  0  0  0  0  0  0  0  0
  1  2  1  0
  2 21  2  0
  2  3  1  0
  3  4  2  0
  4  5  1  0
  4 16  1  0
  5 14  1  0
  5  6  2  0
  6  7  1  0
  6  8  1  0
  8  9  1  0
  8 10  2  0
 10 11  1  0
 10 12  1  0
 12 13  1  0
 12 14  2  0
 14 15  1  0
 16 17  1  0
 16 20  2  0
 17 18  1  0
 17 19  1  0
 20 21  1  0
 21 22  1  0
 22 40  1  0
 22 23  1  0
 23 24  1  0
 23 25  1  0
 23 26  1  0
 26 27  1  0
 26 28  1  0
 26 29  1  0
 29 30  1  0
 29 31  1  0
 29 37  1  0
 31 32  1  0
 31 33  1  0
 31 34  1  0
 34 35  1  0
 34 36  1  0
 34 43  1  0
 37 38  1  0
 37 39  1  0
 37 40  1  0
 40 41  1  0
 40 42  1  0
M  CHG  1  34   1
M  END
>  <s_m_source_file>  (5) 
ligprep_shp2.smi

>  <i_m_source_file_index>  (5) 
24

>  <i_lp_mmshare_version>  (5) 
53161

>  <i_f3d_flags>  (5) 
0

>  <s_epik_input>  (5) 
W05IMl1bQ0gyXVtDSF0oW0NIMl1bQ0gyXTEpW0NIMl1bQ0gyXU4xYyhuYzJbTkgyXSlbY0hdbmMyLWMzW2NIXVtjSF1bY0hdYyhDbCljM0Ns

>  <s_epik_cmdline>  (5) 
J2VwaWtfcHl0aG9uJywgJy1waHQnLCAnMC4wJywgJy1waCcsICc3LjQnLCAnLXRuJywgJzgnLCAnLW1hJywgJzUwMCcsICctaW1hZScsICc8aW5maWxlLm1hZT4nLCAnLW9tYWUnLCAnPG91dGZpbGUubWFlPic=

>  <r_lp_tautomer_probability>  (5) 
1

>  <r_epik_Ionization_Penalty>  (5) 
  0.0014

>  <r_epik_Ionization_Penalty_Charging>  (5) 
  0.0010

>  <r_epik_Ionization_Penalty_Neutral>  (5) 
  0.0004

>  <r_epik_State_Penalty>  (5) 
 -0.0000

>  <r_epik_Charging_Adjusted_Penalty>  (5) 
0.000953617

>  <i_epik_Tot_Q>  (5) 
1

>  <i_epik_Tot_abs_Q>  (5) 
1

>  <s_lp_Force_Field>  (5) 
S-OPLS

>  <r_lp_Energy>  (5) 
46.3802

>  <b_lp_Chiralities_Consistent>  (5) 
1

>  <s_lp_Variant>  (5) 
lig_E9-1

>  <s_i_glide_gridfile>  (5) 
glide-grid_SHP2-5EHR

>  <i_i_glide_lignum>  (5) 
24

>  <i_i_glide_rotatable_bonds>  (5) 
3

>  <r_i_docking_score>  (5) 
-8.09443473967589

>  <r_i_glide_ligand_efficiency>  (5) 
-0.3519319452033

>  <r_i_glide_ligand_efficiency_sa>  (5) 
-1.00084763707254

>  <r_i_glide_ligand_efficiency_ln>  (5) 
-1.95730771632992

>  <r_i_glide_gscore>  (5) 
-8.09443473967589

>  <r_i_glide_lipo>  (5) 
-2.28053642804102

>  <r_i_glide_hbond>  (5) 
-0.623232392622955

>  <r_i_glide_metal>  (5) 
-0

>  <r_i_glide_rewards>  (5) 
-1.28584919799063

>  <r_i_glide_evdw>  (5) 
-49.2752571105957

>  <r_i_glide_ecoul>  (5) 
-12.0004529953003

>  <r_i_glide_erotb>  (5) 
0.459014083803548

>  <r_i_glide_esite>  (5) 
-0.1

>  <r_i_glide_emodel>  (5) 
-97.5429947716794

>  <r_i_glide_energy>  (5) 
-61.275710105896

>  <r_i_glide_einternal>  (5) 
2.39212608337402

>  <i_i_glide_confnum>  (5) 
4

>  <i_i_glide_posenum>  (5) 
2

>  <r_i_glide_eff_state_penalty>  (5) 
-0

>  <r_i_glide_rmsd>  (5) 
0.088376395876448

>  <s_glide_core_constrain_type>  (5) 
snapped_core_restrain

$$$$
lig_E27
     RDKit          3D

 43 45  0  0  1  0  0  0  0  0999 V2000
   22.2407   42.9507    2.6451 H   0  0  0  0  0  0  0  0  0  0  0  0
   22.2406   42.1437    3.3632 C   0  0  0  0  0  0  0  0  0  0  0  0
   21.0769   41.9053    4.0125 N   0  0  0  0  0  0  0  0  0  0  0  0
   21.0639   40.8817    4.8947 C   0  0  0  0  0  0  0  0  0  0  0  0
   19.7547   40.6164    5.5194 C   0  0  0  0  0  0  0  0  0  0  0  0
   18.6976   40.1358    4.7122 C   0  0  0  0  0  0  0  0  0  0  0  0
   18.8618   39.9634    3.6574 H   0  0  0  0  0  0  0  0  0  0  0  0
   17.4341   39.8562    5.2618 C   0  0  0  0  0  0  0  0  0  0  0  0
   16.6456   39.4760    4.6284 H   0  0  0  0  0  0  0  0  0  0  0  0
   17.2114   40.0473    6.6361 C   0  0  0  0  0  0  0  0  0  0  0  0
   16.2475   39.8190    7.0675 H   0  0  0  0  0  0  0  0  0  0  0  0
   18.2457   40.5401    7.4506 C   0  0  0  0  0  0  0  0  0  0  0  0
   17.9445   40.8121    9.1255 Cl  0  0  0  0  0  0  0  0  0  0  0  0
   19.5103   40.8342    6.8982 C   0  0  0  0  0  0  0  0  0  0  0  0
   20.7232   41.5220    7.9201 Cl  0  0  0  0  0  0  0  0  0  0  0  0
   22.2308   40.1056    5.1248 C   0  0  0  0  0  0  0  0  0  0  0  0
   22.2423   39.0543    6.0343 N   0  0  0  0  0  0  0  0  0  0  0  0
   21.4287   38.8119    6.5790 H   0  0  0  0  0  0  0  0  0  0  0  0
   23.0903   38.5328    6.2330 H   0  0  0  0  0  0  0  0  0  0  0  0
   23.3814   40.3218    4.4468 N   0  0  0  0  0  0  0  0  0  0  0  0
   23.3820   41.3273    3.5437 C   0  0  0  0  0  0  0  0  0  0  0  0
   24.5290   41.5130    2.7584 N   0  0  0  0  0  0  0  0  0  0  0  0
   25.4551   42.5879    3.1112 C   0  0  0  0  0  0  0  0  0  0  0  0
   25.6608   43.1733    2.2140 H   0  0  0  0  0  0  0  0  0  0  0  0
   24.9961   43.2720    3.8257 H   0  0  0  0  0  0  0  0  0  0  0  0
   26.7729   42.0221    3.6927 C   0  0  2  0  0  0  0  0  0  0  0  0
   26.5521   41.5501    4.6507 H   0  0  0  0  0  0  0  0  0  0  0  0
   27.8286   43.1046    3.9281 C   0  0  0  0  0  0  0  0  0  0  0  0
   27.4390   43.9207    4.5357 H   0  0  0  0  0  0  0  0  0  0  0  0
   28.7001   42.7035    4.4467 H   0  0  0  0  0  0  0  0  0  0  0  0
   28.1736   43.5221    2.9827 H   0  0  0  0  0  0  0  0  0  0  0  0
   27.3293   40.9868    2.7933 N   0  0  0  0  0  0  0  0  0  0  0  0
   28.1904   40.6307    3.1876 H   0  0  0  0  0  0  0  0  0  0  0  0
   26.3968   39.8681    2.5326 C   0  0  2  0  0  0  0  0  0  0  0  0
   26.2087   39.3750    3.4865 H   0  0  0  0  0  0  0  0  0  0  0  0
   27.0404   38.8525    1.5762 C   0  0  0  0  0  0  0  0  0  0  0  0
   26.3786   38.0025    1.4047 H   0  0  0  0  0  0  0  0  0  0  0  0
   27.9720   38.4595    1.9853 H   0  0  0  0  0  0  0  0  0  0  0  0
   27.2639   39.2992    0.6072 H   0  0  0  0  0  0  0  0  0  0  0  0
   25.0531   40.3909    1.9821 C   0  0  0  0  0  0  0  0  0  0  0  0
   25.1758   40.7292    0.9532 H   0  0  0  0  0  0  0  0  0  0  0  0
   24.3341   39.5734    1.9542 H   0  0  0  0  0  0  0  0  0  0  0  0
   27.5508   41.4271    1.9127 H   0  0  0  0  0  0  0  0  0  0  0  0
  1  2  1  0
  2 21  2  0
  2  3  1  0
  3  4  2  0
  4  5  1  0
  4 16  1  0
  5 14  1  0
  5  6  2  0
  6  7  1  0
  6  8  1  0
  8  9  1  0
  8 10  2  0
 10 11  1  0
 10 12  1  0
 12 13  1  0
 12 14  2  0
 14 15  1  0
 16 17  1  0
 16 20  2  0
 17 18  1  0
 17 19  1  0
 20 21  1  0
 21 22  1  0
 22 40  1  0
 22 23  1  0
 23 24  1  0
 23 25  1  0
 23 26  1  0
 26 27  1  1
 26 28  1  0
 26 32  1  0
 28 29  1  0
 28 30  1  0
 28 31  1  0
 32 33  1  0
 32 34  1  0
 32 43  1  0
 34 35  1  1
 34 36  1  0
 34 40  1  0
 36 37  1  0
 36 38  1  0
 36 39  1  0
 40 41  1  0
 40 42  1  0
M  CHG  1  32   1
M  END
>  <s_m_source_file>  (6) 
ligprep_shp2.smi

>  <i_m_source_file_index>  (6) 
15

>  <i_lp_mmshare_version>  (6) 
53161

>  <i_f3d_flags>  (6) 
0

>  <s_epik_input>  (6) 
W0NIM11bQ0BIXShbQ0gyXTEpW05IXVtDQEBIXShbQ0gzXSlbQ0gyXU4xYyhuYzJbTkgyXSlbY0hdbmMyLWMzW2NIXVtjSF1bY0hdYyhDbCljM0Ns

>  <s_epik_cmdline>  (6) 
J2VwaWtfcHl0aG9uJywgJy1waHQnLCAnMC4wJywgJy1waCcsICc3LjQnLCAnLXRuJywgJzgnLCAnLW1hJywgJzUwMCcsICctaW1hZScsICc8aW5maWxlLm1hZT4nLCAnLW9tYWUnLCAnPG91dGZpbGUubWFlPic=

>  <r_lp_tautomer_probability>  (6) 
1

>  <r_epik_Ionization_Penalty>  (6) 
  0.0273

>  <r_epik_Ionization_Penalty_Charging>  (6) 
  0.0273

>  <r_epik_Ionization_Penalty_Neutral>  (6) 
  0.0000

>  <r_epik_State_Penalty>  (6) 
 -0.0000

>  <r_epik_Charging_Adjusted_Penalty>  (6) 
0.0273001

>  <i_epik_Tot_Q>  (6) 
1

>  <i_epik_Tot_abs_Q>  (6) 
1

>  <s_lp_Force_Field>  (6) 
S-OPLS

>  <r_lp_Energy>  (6) 
44.5251

>  <b_lp_Chiralities_Consistent>  (6) 
1

>  <s_lp_Variant>  (6) 
lig_E27-1

>  <s_i_glide_gridfile>  (6) 
glide-grid_SHP2-5EHR

>  <i_i_glide_lignum>  (6) 
15

>  <i_i_glide_rotatable_bonds>  (6) 
2

>  <r_i_docking_score>  (6) 
-7.74516510855307

>  <r_i_glide_ligand_efficiency>  (6) 
-0.336746309067525

>  <r_i_glide_ligand_efficiency_sa>  (6) 
-0.95766170794311

>  <r_i_glide_ligand_efficiency_ln>  (6) 
-1.87285115252251

>  <r_i_glide_gscore>  (6) 
-7.74516510855307

>  <r_i_glide_lipo>  (6) 
-2.55068194927011

>  <r_i_glide_hbond>  (6) 
-0.410864204135457

>  <r_i_glide_metal>  (6) 
-0

>  <r_i_glide_rewards>  (6) 
-1.28587989397779

>  <r_i_glide_evdw>  (6) 
-49.332389831543

>  <r_i_glide_ecoul>  (6) 
-8.84439659118652

>  <r_i_glide_erotb>  (6) 
0.306009389202365

>  <r_i_glide_esite>  (6) 
-0.0104694701169546

>  <r_i_glide_emodel>  (6) 
-85.3305641260609

>  <r_i_glide_energy>  (6) 
-58.1767864227295

>  <r_i_glide_einternal>  (6) 
5.45631122589111

>  <i_i_glide_confnum>  (6) 
2

>  <i_i_glide_posenum>  (6) 
2

>  <r_i_glide_eff_state_penalty>  (6) 
-0

>  <r_i_glide_rmsd>  (6) 
0.104350638480579

>  <s_glide_core_constrain_type>  (6) 
snapped_core_restrain

$$$$
lig_7
     RDKit          3D

 46 48  0  0  1  0  0  0  0  0999 V2000
   22.1281   39.0862    5.9252 H   0  0  0  0  0  0  0  0  0  0  0  0
   22.2068   39.9067    5.2268 C   0  0  0  0  0  0  0  0  0  0  0  0
   23.3928   40.0595    4.6030 N   0  0  0  0  0  0  0  0  0  0  0  0
   23.4969   41.0289    3.6900 C   0  0  0  0  0  0  0  0  0  0  0  0
   24.6520   41.0776    2.9059 N   0  0  0  0  0  0  0  0  0  0  0  0
   25.7474   40.1178    3.0307 C   0  0  0  0  0  0  0  0  0  0  0  0
   26.0125   39.7909    2.0242 H   0  0  0  0  0  0  0  0  0  0  0  0
   25.4539   39.2047    3.5355 H   0  0  0  0  0  0  0  0  0  0  0  0
   26.9634   40.7927    3.6857 C   0  0  0  0  0  0  0  0  0  0  0  0
   27.7650   40.0573    3.7461 H   0  0  0  0  0  0  0  0  0  0  0  0
   26.7311   41.0858    4.7244 H   0  0  0  0  0  0  0  0  0  0  0  0
   27.4005   41.9930    2.8080 C   0  0  0  0  0  0  0  0  0  0  0  0
   27.6712   41.5699    1.8402 H   0  0  0  0  0  0  0  0  0  0  0  0
   28.6237   42.6540    3.3435 N   0  0  0  0  0  0  0  0  0  0  0  0
   29.5783   43.1218    2.3058 C   0  0  0  0  0  0  0  0  0  0  0  0
   29.2052   43.9269    1.6944 H   0  0  0  0  0  0  0  0  0  0  0  0
   29.8320   42.3221    1.6147 H   0  0  0  0  0  0  0  0  0  0  0  0
   30.5077   43.4567    2.7654 H   0  0  0  0  0  0  0  0  0  0  0  0
   28.3840   43.6240    4.4356 C   0  0  0  0  0  0  0  0  0  0  0  0
   27.6543   44.3937    4.1876 H   0  0  0  0  0  0  0  0  0  0  0  0
   28.0072   43.1015    5.3134 H   0  0  0  0  0  0  0  0  0  0  0  0
   29.3076   44.1298    4.7142 H   0  0  0  0  0  0  0  0  0  0  0  0
   26.2046   42.9541    2.5675 C   0  0  0  0  0  0  0  0  0  0  0  0
   25.8819   43.4221    3.4978 H   0  0  0  0  0  0  0  0  0  0  0  0
   26.4846   43.7586    1.8870 H   0  0  0  0  0  0  0  0  0  0  0  0
   24.9858   42.1977    2.0193 C   0  0  0  0  0  0  0  0  0  0  0  0
   25.2119   41.8006    1.0259 H   0  0  0  0  0  0  0  0  0  0  0  0
   24.1574   42.8954    1.8805 H   0  0  0  0  0  0  0  0  0  0  0  0
   22.5480   41.9224    3.4177 N   0  0  0  0  0  0  0  0  0  0  0  0
   21.3756   41.7782    4.0447 C   0  0  0  0  0  0  0  0  0  0  0  0
   20.4232   42.7221    3.7095 N   0  0  0  0  0  0  0  0  0  0  0  0
   19.5113   42.7178    4.1408 H   0  0  0  0  0  0  0  0  0  0  0  0
   20.6679   43.5107    3.1276 H   0  0  0  0  0  0  0  0  0  0  0  0
   21.1021   40.7398    4.9537 C   0  0  0  0  0  0  0  0  0  0  0  0
   19.7776   40.5001    5.5551 C   0  0  0  0  0  0  0  0  0  0  0  0
   18.7465   39.9543    4.7567 C   0  0  0  0  0  0  0  0  0  0  0  0
   18.9373   39.7141    3.7200 H   0  0  0  0  0  0  0  0  0  0  0  0
   17.4693   39.7075    5.2907 C   0  0  0  0  0  0  0  0  0  0  0  0
   16.6975   39.2785    4.6673 H   0  0  0  0  0  0  0  0  0  0  0  0
   17.2039   39.9992    6.6398 C   0  0  0  0  0  0  0  0  0  0  0  0
   16.2274   39.7943    7.0569 H   0  0  0  0  0  0  0  0  0  0  0  0
   18.2122   40.5537    7.4447 C   0  0  0  0  0  0  0  0  0  0  0  0
   17.8551   40.9676    9.0803 Cl  0  0  0  0  0  0  0  0  0  0  0  0
   19.4966   40.8002    6.9115 C   0  0  0  0  0  0  0  0  0  0  0  0
   20.6975   41.5219    7.9207 Cl  0  0  0  0  0  0  0  0  0  0  0  0
   29.1548   41.9025    3.7636 H   0  0  0  0  0  0  0  0  0  0  0  0
  1  2  1  0
  2 34  2  0
  2  3  1  0
  3  4  2  0
  4  5  1  0
  4 29  1  0
  5 26  1  0
  5  6  1  0
  6  7  1  0
  6  8  1  0
  6  9  1  0
  9 10  1  0
  9 11  1  0
  9 12  1  0
 12 13  1  0
 12 14  1  0
 12 23  1  0
 14 15  1  0
 14 19  1  0
 14 46  1  0
 15 16  1  0
 15 17  1  0
 15 18  1  0
 19 20  1  0
 19 21  1  0
 19 22  1  0
 23 24  1  0
 23 25  1  0
 23 26  1  0
 26 27  1  0
 26 28  1  0
 29 30  2  0
 30 31  1  0
 30 34  1  0
 31 32  1  0
 31 33  1  0
 34 35  1  0
 35 44  1  0
 35 36  2  0
 36 37  1  0
 36 38  1  0
 38 39  1  0
 38 40  2  0
 40 41  1  0
 40 42  1  0
 42 43  1  0
 42 44  2  0
 44 45  1  0
M  CHG  1  14   1
M  END
>  <s_m_source_file>  (7) 
ligprep_shp2.smi

>  <i_m_source_file_index>  (7) 
6

>  <i_lp_mmshare_version>  (7) 
53161

>  <i_f3d_flags>  (7) 
0

>  <s_epik_input>  (7) 
Q2xjMWMoQ2wpW2NIXVtjSF1bY0hdYzEtYyhjKG4yKVtOSDJdKVtjSF1uYzJOM1tDSDJdW0NIMl1bQ0hdKE4oW0NIM10pW0NIM10pW0NIMl1bQ0gyXTM=

>  <s_epik_cmdline>  (7) 
J2VwaWtfcHl0aG9uJywgJy1waHQnLCAnMC4wJywgJy1waCcsICc3LjQnLCAnLXRuJywgJzgnLCAnLW1hJywgJzUwMCcsICctaW1hZScsICc8aW5maWxlLm1hZT4nLCAnLW9tYWUnLCAnPG91dGZpbGUubWFlPic=

>  <r_lp_tautomer_probability>  (7) 
1

>  <r_epik_Ionization_Penalty>  (7) 
  0.0857

>  <r_epik_Ionization_Penalty_Charging>  (7) 
  0.0046

>  <r_epik_Ionization_Penalty_Neutral>  (7) 
  0.0810

>  <r_epik_State_Penalty>  (7) 
  0.0528

>  <r_epik_Charging_Adjusted_Penalty>  (7) 
0.0574696

>  <i_epik_Tot_Q>  (7) 
1

>  <i_epik_Tot_abs_Q>  (7) 
1

>  <s_lp_Force_Field>  (7) 
S-OPLS

>  <r_lp_Energy>  (7) 
57.4342

>  <b_lp_Chiralities_Consistent>  (7) 
1

>  <s_lp_Variant>  (7) 
lig_7-1

>  <s_i_glide_gridfile>  (7) 
glide-grid_SHP2-5EHR

>  <i_i_glide_lignum>  (7) 
6

>  <i_i_glide_rotatable_bonds>  (7) 
3

>  <r_i_docking_score>  (7) 
-7.36473883125184

>  <r_i_glide_ligand_efficiency>  (7) 
-0.306864117968827

>  <r_i_glide_ligand_efficiency_sa>  (7) 
-0.88514928362892

>  <r_i_glide_ligand_efficiency_ln>  (7) 
-1.76271994816269

>  <r_i_glide_gscore>  (7) 
-7.41753883125184

>  <r_i_glide_lipo>  (7) 
-2.44270791851269

>  <r_i_glide_hbond>  (7) 
-0.04610207437005

>  <r_i_glide_metal>  (7) 
-0

>  <r_i_glide_rewards>  (7) 
-1.45148633473357

>  <r_i_glide_evdw>  (7) 
-42.1526336669922

>  <r_i_glide_ecoul>  (7) 
-11.7506875991821

>  <r_i_glide_erotb>  (7) 
0.428233042994739

>  <r_i_glide_esite>  (7) 
-0.0352407234033368

>  <r_i_glide_emodel>  (7) 
-79.6036107829273

>  <r_i_glide_energy>  (7) 
-53.9033212661743

>  <r_i_glide_einternal>  (7) 
5.27837944030762

>  <i_i_glide_confnum>  (7) 
34

>  <i_i_glide_posenum>  (7) 
27

>  <r_i_glide_eff_state_penalty>  (7) 
0.0528

>  <r_i_glide_rmsd>  (7) 
0.0878164179120537

>  <s_glide_core_constrain_type>  (7) 
snapped_core_restrain

$$$$
lig_p38a_2e
     RDKit          3D

 46 49  0  0  1  0  0  0  0  0999 V2000
   20.7214    7.8369   30.7882 H   0  0  0  0  0  0  0  0  0  0  0  0
   21.5982    8.4569   30.8934 C   0  0  0  0  0  0  0  0  0  0  0  0
   22.7968    7.8362   30.9120 N   0  0  0  0  0  0  0  0  0  0  0  0
   23.8655    8.6115   31.0691 C   0  0  0  0  0  0  0  0  0  0  0  0
   25.0825    7.9645   31.1657 N   0  0  0  0  0  0  0  0  0  0  0  0
   25.0855    6.9509   31.1530 H   0  0  0  0  0  0  0  0  0  0  0  0
   26.3564    8.6619   31.2849 C   0  0  0  0  0  0  0  0  0  0  0  0
   26.1975    9.5879   31.8404 H   0  0  0  0  0  0  0  0  0  0  0  0
   27.3839    7.8453   32.0751 C   0  0  0  0  0  0  0  0  0  0  0  0
   26.9977    7.5951   33.0635 H   0  0  0  0  0  0  0  0  0  0  0  0
   27.5999    6.9032   31.5681 H   0  0  0  0  0  0  0  0  0  0  0  0
   28.6671    8.6756   32.2100 C   0  0  0  0  0  0  0  0  0  0  0  0
   28.4901    9.5742   32.8031 H   0  0  0  0  0  0  0  0  0  0  0  0
   29.4414    8.1001   32.7174 H   0  0  0  0  0  0  0  0  0  0  0  0
   29.1287    9.0362   30.9161 O   0  0  0  0  0  0  0  0  0  0  0  0
   28.1822    9.7653   30.1440 C   0  0  0  0  0  0  0  0  0  0  0  0
   28.0166   10.7655   30.5472 H   0  0  0  0  0  0  0  0  0  0  0  0
   28.5480    9.8362   29.1506 H   0  0  0  0  0  0  0  0  0  0  0  0
   26.8961    9.0023   29.9254 C   0  0  0  0  0  0  0  0  0  0  0  0
   27.0798    8.0961   29.3456 H   0  0  0  0  0  0  0  0  0  0  0  0
   26.1906    9.6123   29.3594 H   0  0  0  0  0  0  0  0  0  0  0  0
   23.8610    9.9372   31.1806 N   0  0  0  0  0  0  0  0  0  0  0  0
   22.6784   10.5847   31.1869 C   0  0  0  0  0  0  0  0  0  0  0  0
   21.4837    9.8509   31.0519 C   0  0  0  0  0  0  0  0  0  0  0  0
   20.2130   10.5627   31.1183 C   0  0  0  0  0  0  0  0  0  0  0  0
   19.3122    9.9744   31.0276 H   0  0  0  0  0  0  0  0  0  0  0  0
   20.1834   11.8997   31.3129 C   0  0  0  0  0  0  0  0  0  0  0  0
   19.0286   12.6369   31.4204 O   0  0  0  0  0  0  0  0  0  0  0  0
   17.7890   12.0762   31.2844 C   0  0  0  0  0  0  0  0  0  0  0  0
   17.0544   12.3308   30.1101 C   0  0  0  0  0  0  0  0  0  0  0  0
   17.4992   12.9050   29.3098 H   0  0  0  0  0  0  0  0  0  0  0  0
   15.7449   11.8360   29.9775 C   0  0  0  0  0  0  0  0  0  0  0  0
   15.1862   12.0145   29.0709 H   0  0  0  0  0  0  0  0  0  0  0  0
   15.1597   11.1110   31.0318 C   0  0  0  0  0  0  0  0  0  0  0  0
   13.9026   10.6356   30.9034 F   0  0  0  0  0  0  0  0  0  0  0  0
   15.8805   10.8805   32.2182 C   0  0  0  0  0  0  0  0  0  0  0  0
   15.4264   10.3224   33.0245 H   0  0  0  0  0  0  0  0  0  0  0  0
   17.1998   11.3562   32.3442 C   0  0  0  0  0  0  0  0  0  0  0  0
   17.7527   11.1798   33.2554 H   0  0  0  0  0  0  0  0  0  0  0  0
   21.4187   12.6805   31.4227 C   0  0  0  0  0  0  0  0  0  0  0  0
   21.3747   13.9021   31.5759 O   0  0  0  0  0  0  0  0  0  0  0  0
   22.5996   12.0028   31.3543 N   0  0  0  0  0  0  0  0  0  0  0  0
   23.8730   12.7365   31.4597 C   0  0  0  0  0  0  0  0  0  0  0  0
   24.5040   12.2937   32.2311 H   0  0  0  0  0  0  0  0  0  0  0  0
   24.4146   12.6788   30.5147 H   0  0  0  0  0  0  0  0  0  0  0  0
   23.7783   13.7927   31.7139 H   0  0  0  0  0  0  0  0  0  0  0  0
  1  2  1  0
  2 24  2  0
  2  3  1  0
  3  4  2  0
  4  5  1  0
  4 22  1  0
  5  6  1  0
  5  7  1  0
  7 19  1  0
  7  8  1  0
  7  9  1  0
  9 10  1  0
  9 11  1  0
  9 12  1  0
 12 13  1  0
 12 14  1  0
 12 15  1  0
 15 16  1  0
 16 17  1  0
 16 18  1  0
 16 19  1  0
 19 20  1  0
 19 21  1  0
 22 23  2  0
 23 42  1  0
 23 24  1  0
 24 25  1  0
 25 26  1  0
 25 27  2  0
 27 28  1  0
 27 40  1  0
 28 29  1  0
 29 38  1  0
 29 30  2  0
 30 31  1  0
 30 32  1  0
 32 33  1  0
 32 34  2  0
 34 35  1  0
 34 36  1  0
 36 37  1  0
 36 38  2  0
 38 39  1  0
 40 41  2  0
 40 42  1  0
 42 43  1  0
 43 44  1  0
 43 45  1  0
 43 46  1  0
M  END
>  <s_m_source_file>  (8) 
ligprep_p38.smi

>  <i_m_source_file_index>  (8) 
4

>  <i_lp_mmshare_version>  (8) 
53161

>  <i_f3d_flags>  (8) 
0

>  <s_epik_input>  (8) 
W0NIMl0xW0NIMl1PW0NIMl1bQ0gyXVtDSF0xW05IXWMobjIpbltjSF1jKGMyMylbY0hdYyhjKD1PKW4zW0NIM10pT2M0W2NIXVtjSF1jKEYpW2NIXVtjSF00

>  <s_epik_cmdline>  (8) 
J2VwaWtfcHl0aG9uJywgJy1waHQnLCAnMC4wJywgJy1waCcsICc3LjQnLCAnLXRuJywgJzgnLCAnLW1hJywgJzUwMCcsICctaW1hZScsICc8aW5maWxlLm1hZT4nLCAnLW9tYWUnLCAnPG91dGZpbGUubWFlPic=

>  <r_lp_tautomer_probability>  (8) 
1

>  <r_epik_Ionization_Penalty>  (8) 
  0.0000

>  <r_epik_Ionization_Penalty_Charging>  (8) 
  0.0000

>  <r_epik_Ionization_Penalty_Neutral>  (8) 
  0.0000

>  <r_epik_State_Penalty>  (8) 
 -0.0000

>  <r_epik_Charging_Adjusted_Penalty>  (8) 
1.64235e-06

>  <i_epik_Tot_Q>  (8) 
0

>  <i_epik_Tot_abs_Q>  (8) 
0

>  <s_epik_Chemistry_Notes>  (8) 
This compound has an imine and may undergo hydrolysis.

>  <s_lp_Force_Field>  (8) 
S-OPLS

>  <r_lp_Energy>  (8) 
52.5064

>  <b_lp_Chiralities_Consistent>  (8) 
1

>  <s_lp_Variant>  (8) 
lig_p38a_2e-1

>  <s_i_glide_gridfile>  (8) 
glide-grid_P38-3FLY

>  <i_i_glide_lignum>  (8) 
4

>  <i_i_glide_rotatable_bonds>  (8) 
4

>  <r_i_docking_score>  (8) 
-10.7748442130959

>  <r_i_glide_ligand_efficiency>  (8) 
-0.399068304188738

>  <r_i_glide_ligand_efficiency_sa>  (8) 
-1.19720491125095

>  <r_i_glide_ligand_efficiency_ln>  (8) 
-2.50820609561878

>  <r_i_glide_gscore>  (8) 
-10.7748442130959

>  <r_i_glide_lipo>  (8) 
-3.5846802739794

>  <r_i_glide_hbond>  (8) 
-1.2544711871122

>  <r_i_glide_metal>  (8) 
-0

>  <r_i_glide_rewards>  (8) 
-2.64520439429596

>  <r_i_glide_evdw>  (8) 
-39.9906349182129

>  <r_i_glide_ecoul>  (8) 
-12.3564834594727

>  <r_i_glide_erotb>  (8) 
0.562515907123166

>  <r_i_glide_esite>  (8) 
0

>  <r_i_glide_emodel>  (8) 
-85.6349231638849

>  <r_i_glide_energy>  (8) 
-52.3471183776855

>  <r_i_glide_einternal>  (8) 
0.340447723865509

>  <i_i_glide_confnum>  (8) 
6

>  <i_i_glide_posenum>  (8) 
4

>  <r_i_glide_eff_state_penalty>  (8) 
-0

>  <r_i_glide_rmsd>  (8) 
0.0936967331604956

>  <s_glide_core_constrain_type>  (8) 
snapped_core_restrain

$$$$
lig_p38a_2h
     RDKit          3D

 46 49  0  0  1  0  0  0  0  0999 V2000
   20.8093    7.7956   30.7906 H   0  0  0  0  0  0  0  0  0  0  0  0
   21.6757    8.4324   30.8711 C   0  0  0  0  0  0  0  0  0  0  0  0
   22.8879    7.8367   30.8434 N   0  0  0  0  0  0  0  0  0  0  0  0
   23.9410    8.6438   30.9483 C   0  0  0  0  0  0  0  0  0  0  0  0
   25.1803    8.0310   30.9601 N   0  0  0  0  0  0  0  0  0  0  0  0
   25.1907    7.0171   30.9635 H   0  0  0  0  0  0  0  0  0  0  0  0
   26.4192    8.7171   31.3210 C   0  0  0  0  0  0  0  0  0  0  0  0
   26.5498    9.5702   30.6536 H   0  0  0  0  0  0  0  0  0  0  0  0
   26.3815    9.2170   32.7863 C   0  0  0  0  0  0  0  0  0  0  0  0
   25.5913    9.9469   32.9503 H   0  0  0  0  0  0  0  0  0  0  0  0
   26.1715    8.3836   33.4580 H   0  0  0  0  0  0  0  0  0  0  0  0
   27.7119    9.8622   33.1888 C   0  0  0  0  0  0  0  0  0  0  0  0
   27.9217   10.7451   32.5823 H   0  0  0  0  0  0  0  0  0  0  0  0
   27.6706   10.1897   34.2278 H   0  0  0  0  0  0  0  0  0  0  0  0
   28.7490    8.9046   33.0509 O   0  0  0  0  0  0  0  0  0  0  0  0
   28.9178    8.4687   31.7092 C   0  0  0  0  0  0  0  0  0  0  0  0
   29.2015    9.3091   31.0733 H   0  0  0  0  0  0  0  0  0  0  0  0
   29.7553    7.7728   31.7133 H   0  0  0  0  0  0  0  0  0  0  0  0
   27.6339    7.7879   31.1830 C   0  0  0  0  0  0  0  0  0  0  0  0
   27.4669    6.8692   31.7479 H   0  0  0  0  0  0  0  0  0  0  0  0
   27.7481    7.4930   30.1407 H   0  0  0  0  0  0  0  0  0  0  0  0
   23.9044    9.9699   31.0772 N   0  0  0  0  0  0  0  0  0  0  0  0
   22.7102   10.5895   31.1384 C   0  0  0  0  0  0  0  0  0  0  0  0
   21.5317    9.8247   31.0282 C   0  0  0  0  0  0  0  0  0  0  0  0
   20.2487   10.5111   31.0904 C   0  0  0  0  0  0  0  0  0  0  0  0
   19.3500    9.9249   30.9731 H   0  0  0  0  0  0  0  0  0  0  0  0
   20.2126   11.8420   31.2684 C   0  0  0  0  0  0  0  0  0  0  0  0
   18.7610   12.8214   31.3100 S   0  0  0  0  0  0  0  0  0  0  0  0
   17.3354   11.8281   31.2436 C   0  0  0  0  0  0  0  0  0  0  0  0
   16.4859   11.9423   30.1271 C   0  0  0  0  0  0  0  0  0  0  0  0
   16.7890   12.5250   29.2690 H   0  0  0  0  0  0  0  0  0  0  0  0
   15.2189   11.3379   30.1489 C   0  0  0  0  0  0  0  0  0  0  0  0
   14.5614   11.4229   29.2959 H   0  0  0  0  0  0  0  0  0  0  0  0
   14.8073   10.6372   31.2962 C   0  0  0  0  0  0  0  0  0  0  0  0
   13.8269   10.1864   31.3127 H   0  0  0  0  0  0  0  0  0  0  0  0
   15.6605   10.5433   32.4139 C   0  0  0  0  0  0  0  0  0  0  0  0
   15.3478   10.0105   33.2972 H   0  0  0  0  0  0  0  0  0  0  0  0
   16.9379   11.1150   32.3843 C   0  0  0  0  0  0  0  0  0  0  0  0
   17.7576   11.0167   33.4566 F   0  0  0  0  0  0  0  0  0  0  0  0
   21.4193   12.6699   31.4058 C   0  0  0  0  0  0  0  0  0  0  0  0
   21.3710   13.8907   31.5844 O   0  0  0  0  0  0  0  0  0  0  0  0
   22.6092   12.0068   31.3317 N   0  0  0  0  0  0  0  0  0  0  0  0
   23.8715   12.7572   31.4532 C   0  0  0  0  0  0  0  0  0  0  0  0
   24.5310   12.2821   32.1807 H   0  0  0  0  0  0  0  0  0  0  0  0
   24.3899   12.7681   30.4933 H   0  0  0  0  0  0  0  0  0  0  0  0
   23.7643   13.7928   31.7776 H   0  0  0  0  0  0  0  0  0  0  0  0
  1  2  1  0
  2 24  2  0
  2  3  1  0
  3  4  2  0
  4  5  1  0
  4 22  1  0
  5  6  1  0
  5  7  1  0
  7 19  1  0
  7  8  1  0
  7  9  1  0
  9 10  1  0
  9 11  1  0
  9 12  1  0
 12 13  1  0
 12 14  1  0
 12 15  1  0
 15 16  1  0
 16 17  1  0
 16 18  1  0
 16 19  1  0
 19 20  1  0
 19 21  1  0
 22 23  2  0
 23 42  1  0
 23 24  1  0
 24 25  1  0
 25 26  1  0
 25 27  2  0
 27 28  1  0
 27 40  1  0
 28 29  1  0
 29 38  1  0
 29 30  2  0
 30 31  1  0
 30 32  1  0
 32 33  1  0
 32 34  2  0
 34 35  1  0
 34 36  1  0
 36 37  1  0
 36 38  2  0
 38 39  1  0
 40 41  2  0
 40 42  1  0
 42 43  1  0
 43 44  1  0
 43 45  1  0
 43 46  1  0
M  END
>  <s_m_source_file>  (9) 
ligprep_p38.smi

>  <i_m_source_file_index>  (9) 
10

>  <i_lp_mmshare_version>  (9) 
53161

>  <i_f3d_flags>  (9) 
0

>  <s_epik_input>  (9) 
W0NIMl0xW0NIMl1PW0NIMl1bQ0gyXVtDSF0xW05IXWMobjIpbltjSF1jKGMyMylbY0hdYyhjKD1PKW4zW0NIM10pU2M0W2NIXVtjSF1bY0hdW2NIXWM0Rg==

>  <s_epik_cmdline>  (9) 
J2VwaWtfcHl0aG9uJywgJy1waHQnLCAnMC4wJywgJy1waCcsICc3LjQnLCAnLXRuJywgJzgnLCAnLW1hJywgJzUwMCcsICctaW1hZScsICc8aW5maWxlLm1hZT4nLCAnLW9tYWUnLCAnPG91dGZpbGUubWFlPic=

>  <r_lp_tautomer_probability>  (9) 
1

>  <r_epik_Ionization_Penalty>  (9) 
  0.0000

>  <r_epik_Ionization_Penalty_Charging>  (9) 
  0.0000

>  <r_epik_Ionization_Penalty_Neutral>  (9) 
  0.0000

>  <r_epik_State_Penalty>  (9) 
 -0.0000

>  <r_epik_Charging_Adjusted_Penalty>  (9) 
8.58232e-07

>  <i_epik_Tot_Q>  (9) 
0

>  <i_epik_Tot_abs_Q>  (9) 
0

>  <s_epik_Chemistry_Notes>  (9) 
This compound has an imine and may undergo hydrolysis.

>  <s_lp_Force_Field>  (9) 
S-OPLS

>  <r_lp_Energy>  (9) 
50.8282

>  <b_lp_Chiralities_Consistent>  (9) 
1

>  <s_lp_Variant>  (9) 
lig_p38a_2h-1

>  <s_i_glide_gridfile>  (9) 
glide-grid_P38-3FLY

>  <i_i_glide_lignum>  (9) 
11

>  <i_i_glide_rotatable_bonds>  (9) 
4

>  <r_i_docking_score>  (9) 
-9.62024704535687

>  <r_i_glide_ligand_efficiency>  (9) 
-0.356305446124329

>  <r_i_glide_ligand_efficiency_sa>  (9) 
-1.06891633719866

>  <r_i_glide_ligand_efficiency_ln>  (9) 
-2.2394349099911

>  <r_i_glide_gscore>  (9) 
-9.62024704535687

>  <r_i_glide_lipo>  (9) 
-3.09619393497726

>  <r_i_glide_hbond>  (9) 
-1.22748363056656

>  <r_i_glide_metal>  (9) 
-0

>  <r_i_glide_rewards>  (9) 
-2.29215051829835

>  <r_i_glide_evdw>  (9) 
-34.3723068237305

>  <r_i_glide_ecoul>  (9) 
-12.0475063323975

>  <r_i_glide_erotb>  (9) 
0.521322329531432

>  <r_i_glide_esite>  (9) 
0

>  <r_i_glide_emodel>  (9) 
-75.8126261079796

>  <r_i_glide_energy>  (9) 
-46.4198131561279

>  <r_i_glide_einternal>  (9) 
2.47103142738342

>  <i_i_glide_confnum>  (9) 
5

>  <i_i_glide_posenum>  (9) 
9

>  <r_i_glide_eff_state_penalty>  (9) 
-0

>  <r_i_glide_rmsd>  (9) 
0.109386181063736

>  <s_glide_core_constrain_type>  (9) 
snapped_core_restrain

$$$$
lig_23476
     RDKit          3D

 48 50  0  0  1  0  0  0  0  0999 V2000
   44.4888    8.8788   -0.1742 H   0  0  0  0  0  0  0  0  0  0  0  0
   45.2491    9.4994    0.2763 C   0  0  0  0  0  0  0  0  0  0  0  0
   44.9757   10.8573    0.5533 C   0  0  0  0  0  0  0  0  0  0  0  0
   45.9603   11.6888    1.1361 C   0  0  0  0  0  0  0  0  0  0  0  0
   47.2194   11.1150    1.4278 C   0  0  0  0  0  0  0  0  0  0  0  0
   47.4898    9.7502    1.2136 C   0  0  0  0  0  0  0  0  0  0  0  0
   46.5051    8.9467    0.5959 C   0  0  0  0  0  0  0  0  0  0  0  0
   46.6852    7.9013    0.3954 H   0  0  0  0  0  0  0  0  0  0  0  0
   48.7271    9.2602    1.6668 N   0  0  0  0  0  0  0  0  0  0  0  0
   49.2801    9.8965    2.2277 H   0  0  0  0  0  0  0  0  0  0  0  0
   48.9719    7.8361    1.8953 C   0  0  0  0  0  0  0  0  0  0  0  0
   50.4684    7.6237    2.2043 C   0  0  0  0  0  0  0  0  0  0  0  0
   50.8454    6.2355    2.7508 C   0  0  0  0  0  0  0  0  0  0  0  0
   50.7379    6.1476    4.2840 C   0  0  0  0  0  0  0  0  0  0  0  0
   49.3013    6.1009    4.8271 C   0  0  0  0  0  0  0  0  0  0  0  0
   48.4230    7.2902    4.4052 C   0  0  0  0  0  0  0  0  0  0  0  0
   47.9962    7.2182    2.9317 C   0  0  0  0  0  0  0  0  0  0  0  0
   47.0113    7.6726    2.8429 H   0  0  0  0  0  0  0  0  0  0  0  0
   47.8260    6.1730    2.6687 H   0  0  0  0  0  0  0  0  0  0  0  0
   47.5203    7.2650    5.0172 H   0  0  0  0  0  0  0  0  0  0  0  0
   48.9023    8.2441    4.6236 H   0  0  0  0  0  0  0  0  0  0  0  0
   48.8238    5.1660    4.5310 H   0  0  0  0  0  0  0  0  0  0  0  0
   49.3413    6.0719    5.9157 H   0  0  0  0  0  0  0  0  0  0  0  0
   51.2577    5.2493    4.6188 H   0  0  0  0  0  0  0  0  0  0  0  0
   51.2748    6.9834    4.7331 H   0  0  0  0  0  0  0  0  0  0  0  0
   50.2629    5.4502    2.2682 H   0  0  0  0  0  0  0  0  0  0  0  0
   51.8852    6.0423    2.4838 H   0  0  0  0  0  0  0  0  0  0  0  0
   51.0262    7.7986    1.2835 H   0  0  0  0  0  0  0  0  0  0  0  0
   50.8228    8.3858    2.8990 H   0  0  0  0  0  0  0  0  0  0  0  0
   48.7771    7.3354    0.9462 H   0  0  0  0  0  0  0  0  0  0  0  0
   48.0029   11.7233    1.8510 H   0  0  0  0  0  0  0  0  0  0  0  0
   45.6922   13.0948    1.4763 C   0  0  0  0  0  0  0  0  0  0  0  0
   46.1746   13.8530    2.5140 C   0  0  0  0  0  0  0  0  0  0  0  0
   45.7382   15.2022    2.5437 C   0  0  0  0  0  0  0  0  0  0  0  0
   44.8484   15.4870    1.5382 C   0  0  0  0  0  0  0  0  0  0  0  0
   44.5875   14.0727    0.5213 S   0  0  0  0  0  0  0  0  0  0  0  0
   44.1000   16.7328    1.2337 C   0  0  0  0  0  0  0  0  0  0  0  0
   43.5013   16.8572    0.1441 O   0  0  0  0  0  0  0  0  0  0  0  0
   44.0789   17.6474    2.0913 O   0  0  0  0  0  0  0  0  0  0  0  0
   46.0831   16.0655    3.5160 O   0  0  0  0  0  0  0  0  0  0  0  0
   47.3124   16.7462    3.3520 C   0  0  0  0  0  0  0  0  0  0  0  0
   47.2132   17.5100    2.5789 H   0  0  0  0  0  0  0  0  0  0  0  0
   48.1146   16.0704    3.0523 H   0  0  0  0  0  0  0  0  0  0  0  0
   47.6831   17.4052    4.6817 C   0  0  0  0  0  0  0  0  0  0  0  0
   48.7744   18.0185    4.7184 O   0  0  0  0  0  0  0  0  0  0  0  0
   46.8790   17.2852    5.6428 O   0  0  0  0  0  0  0  0  0  0  0  0
   47.2782   13.1957    3.9176 Br  0  0  0  0  0  0  0  0  0  0  0  0
   43.9979   11.2537    0.3220 H   0  0  0  0  0  0  0  0  0  0  0  0
  1  2  1  0
  2  7  2  0
  2  3  1  0
  3  4  2  0
  3 48  1  0
  4  5  1  0
  4 32  1  0
  5  6  2  0
  5 31  1  0
  6  7  1  0
  6  9  1  0
  7  8  1  0
  9 10  1  0
  9 11  1  0
 11 17  1  0
 11 12  1  0
 11 30  1  0
 12 13  1  0
 12 28  1  0
 12 29  1  0
 13 14  1  0
 13 26  1  0
 13 27  1  0
 14 15  1  0
 14 24  1  0
 14 25  1  0
 15 16  1  0
 15 22  1  0
 15 23  1  0
 16 17  1  0
 16 20  1  0
 16 21  1  0
 17 18  1  0
 17 19  1  0
 32 36  1  0
 32 33  2  0
 33 34  1  0
 33 47  1  0
 34 35  2  0
 34 40  1  0
 35 36  1  0
 35 37  1  0
 37 38  2  0
 37 39  1  0
 40 41  1  0
 41 42  1  0
 41 43  1  0
 41 44  1  0
 44 45  2  0
 44 46  1  0
M  CHG  2  39  -1  46  -1
M  END
>  <s_m_source_file>  (10) 
ligprep_ptp1b.smi

>  <i_m_source_file_index>  (10) 
15

>  <i_lp_mmshare_version>  (10) 
53161

>  <i_f3d_flags>  (10) 
0

>  <s_epik_input>  (10) 
Tz1DKFtPSF0pW0NIMl1PYyhjKHMxKUMoPU8pW09IXSljKEJyKWMxLWMyW2NIXVtjSF1bY0hdYyhbY0hdMilbTkhdW0NIXTNbQ0gyXVtDSDJdW0NIMl1bQ0gyXVtDSDJdW0NIMl0z

>  <s_epik_cmdline>  (10) 
J2VwaWtfcHl0aG9uJywgJy1waHQnLCAnMC4wJywgJy1waCcsICc3LjQnLCAnLXRuJywgJzgnLCAnLW1hJywgJzUwMCcsICctaW1hZScsICc8aW5maWxlLm1hZT4nLCAnLW9tYWUnLCAnPG91dGZpbGUubWFlPic=

>  <r_lp_tautomer_probability>  (10) 
1

>  <r_epik_Ionization_Penalty>  (10) 
  0.0036

>  <r_epik_Ionization_Penalty_Charging>  (10) 
  0.0001

>  <r_epik_Ionization_Penalty_Neutral>  (10) 
  0.0035

>  <r_epik_State_Penalty>  (10) 
 -0.0000

>  <r_epik_Charging_Adjusted_Penalty>  (10) 
9.21585e-05

>  <i_epik_Tot_Q>  (10) 
-2

>  <i_epik_Tot_abs_Q>  (10) 
2

>  <s_lp_Force_Field>  (10) 
S-OPLS

>  <r_lp_Energy>  (10) 
53.9457

>  <b_lp_Chiralities_Consistent>  (10) 
1

>  <s_lp_Variant>  (10) 
lig_23476-1

>  <s_i_glide_gridfile>  (10) 
glide-grid_PTP1B-2QBS

>  <i_i_glide_lignum>  (10) 
15

>  <i_i_glide_rotatable_bonds>  (10) 
7

>  <r_i_docking_score>  (10) 
-8.77773759232165

>  <r_i_glide_ligand_efficiency>  (10) 
-0.313490628297202

>  <r_i_glide_ligand_efficiency_sa>  (10) 
-0.9519421836163

>  <r_i_glide_ligand_efficiency_ln>  (10) 
-2.02615956188242

>  <r_i_glide_gscore>  (10) 
-8.77773759232165

>  <r_i_glide_lipo>  (10) 
-1.68071670039262

>  <r_i_glide_hbond>  (10) 
-1.35456947218717

>  <r_i_glide_metal>  (10) 
-0

>  <r_i_glide_rewards>  (10) 
-0.227041236436426

>  <r_i_glide_evdw>  (10) 
-41.5820732116699

>  <r_i_glide_ecoul>  (10) 
-29.61203956604

>  <r_i_glide_erotb>  (10) 
0.64934153269916

>  <r_i_glide_esite>  (10) 
-0.085648055421098

>  <r_i_glide_emodel>  (10) 
-134.617302300724

>  <r_i_glide_energy>  (10) 
-71.19411277771

>  <r_i_glide_einternal>  (10) 
5.30109834671021

>  <i_i_glide_confnum>  (10) 
22

>  <i_i_glide_posenum>  (10) 
16

>  <r_i_glide_eff_state_penalty>  (10) 
-0

>  <r_i_glide_rmsd>  (10) 
0.0966631622080244

>  <s_glide_core_constrain_type>  (10) 
snapped_core_restrain

$$$$
lig_23475
     RDKit          3D

 42 44  0  0  1  0  0  0  0  0999 V2000
   44.4878    8.8826   -0.1044 H   0  0  0  0  0  0  0  0  0  0  0  0
   45.2503    9.5189    0.3183 C   0  0  0  0  0  0  0  0  0  0  0  0
   44.9690   10.8718    0.5965 C   0  0  0  0  0  0  0  0  0  0  0  0
   45.9618   11.7117    1.1472 C   0  0  0  0  0  0  0  0  0  0  0  0
   47.2413   11.1657    1.3893 C   0  0  0  0  0  0  0  0  0  0  0  0
   47.5216    9.8059    1.1687 C   0  0  0  0  0  0  0  0  0  0  0  0
   46.5146    8.9789    0.6254 C   0  0  0  0  0  0  0  0  0  0  0  0
   46.6986    7.9355    0.4250 H   0  0  0  0  0  0  0  0  0  0  0  0
   48.8014    9.3503    1.5180 N   0  0  0  0  0  0  0  0  0  0  0  0
   49.4027   10.0239    1.9764 H   0  0  0  0  0  0  0  0  0  0  0  0
   49.0268    7.9545    1.8744 C   0  0  0  0  0  0  0  0  0  0  0  0
   50.4730    7.6991    2.2962 C   0  0  0  0  0  0  0  0  0  0  0  0
   50.4003    6.4036    3.0991 C   0  0  0  0  0  0  0  0  0  0  0  0
   49.0754    6.4880    3.8576 C   0  0  0  0  0  0  0  0  0  0  0  0
   48.1867    7.4669    3.0697 C   0  0  0  0  0  0  0  0  0  0  0  0
   47.8831    8.2938    3.7169 H   0  0  0  0  0  0  0  0  0  0  0  0
   47.2787    6.9666    2.7317 H   0  0  0  0  0  0  0  0  0  0  0  0
   48.6113    5.5049    3.9589 H   0  0  0  0  0  0  0  0  0  0  0  0
   49.2393    6.8726    4.8670 H   0  0  0  0  0  0  0  0  0  0  0  0
   50.3756    5.5582    2.4119 H   0  0  0  0  0  0  0  0  0  0  0  0
   51.2583    6.2692    3.7594 H   0  0  0  0  0  0  0  0  0  0  0  0
   51.1493    7.6210    1.4424 H   0  0  0  0  0  0  0  0  0  0  0  0
   50.8390    8.4988    2.9395 H   0  0  0  0  0  0  0  0  0  0  0  0
   48.8156    7.3256    1.0104 H   0  0  0  0  0  0  0  0  0  0  0  0
   48.0242   11.7992    1.7742 H   0  0  0  0  0  0  0  0  0  0  0  0
   45.6850   13.1066    1.4892 C   0  0  0  0  0  0  0  0  0  0  0  0
   46.1645   13.8635    2.5244 C   0  0  0  0  0  0  0  0  0  0  0  0
   45.7277   15.2101    2.5496 C   0  0  0  0  0  0  0  0  0  0  0  0
   44.8452   15.4928    1.5339 C   0  0  0  0  0  0  0  0  0  0  0  0
   44.5824   14.0753    0.5283 S   0  0  0  0  0  0  0  0  0  0  0  0
   44.1087   16.7403    1.2030 C   0  0  0  0  0  0  0  0  0  0  0  0
   43.5232   16.8514    0.1043 O   0  0  0  0  0  0  0  0  0  0  0  0
   44.0789   17.6636    2.0527 O   0  0  0  0  0  0  0  0  0  0  0  0
   46.0792   16.0731    3.5185 O   0  0  0  0  0  0  0  0  0  0  0  0
   47.2994   16.7558    3.3482 C   0  0  0  0  0  0  0  0  0  0  0  0
   47.1945   17.5294    2.5838 H   0  0  0  0  0  0  0  0  0  0  0  0
   48.0878   16.0735    3.0341 H   0  0  0  0  0  0  0  0  0  0  0  0
   47.6789   17.3990    4.6811 C   0  0  0  0  0  0  0  0  0  0  0  0
   48.7638   18.0171    4.7059 O   0  0  0  0  0  0  0  0  0  0  0  0
   46.8793   17.2757    5.6434 O   0  0  0  0  0  0  0  0  0  0  0  0
   47.2797   13.2107    3.9183 Br  0  0  0  0  0  0  0  0  0  0  0  0
   43.9809   11.2618    0.4017 H   0  0  0  0  0  0  0  0  0  0  0  0
  1  2  1  0
  2  7  2  0
  2  3  1  0
  3  4  2  0
  3 42  1  0
  4  5  1  0
  4 26  1  0
  5  6  2  0
  5 25  1  0
  6  7  1  0
  6  9  1  0
  7  8  1  0
  9 10  1  0
  9 11  1  0
 11 15  1  0
 11 12  1  0
 11 24  1  0
 12 13  1  0
 12 22  1  0
 12 23  1  0
 13 14  1  0
 13 20  1  0
 13 21  1  0
 14 15  1  0
 14 18  1  0
 14 19  1  0
 15 16  1  0
 15 17  1  0
 26 30  1  0
 26 27  2  0
 27 28  1  0
 27 41  1  0
 28 29  2  0
 28 34  1  0
 29 30  1  0
 29 31  1  0
 31 32  2  0
 31 33  1  0
 34 35  1  0
 35 36  1  0
 35 37  1  0
 35 38  1  0
 38 39  2  0
 38 40  1  0
M  CHG  2  33  -1  40  -1
M  END
>  <s_m_source_file>  (11) 
ligprep_ptp1b.smi

>  <i_m_source_file_index>  (11) 
14

>  <i_lp_mmshare_version>  (11) 
53161

>  <i_f3d_flags>  (11) 
0

>  <s_epik_input>  (11) 
W0NIMl0xW0NIMl1bQ0gyXVtDSDJdW0NIXTFbTkhdYyhbY0hdMilbY0hdW2NIXVtjSF1jMi1jM2MoQnIpYyhjKHMzKUMoPU8pW09IXSlPW0NIMl1DKD1PKVtPSF0=

>  <s_epik_cmdline>  (11) 
J2VwaWtfcHl0aG9uJywgJy1waHQnLCAnMC4wJywgJy1waCcsICc3LjQnLCAnLXRuJywgJzgnLCAnLW1hJywgJzUwMCcsICctaW1hZScsICc8aW5maWxlLm1hZT4nLCAnLW9tYWUnLCAnPG91dGZpbGUubWFlPic=

>  <r_lp_tautomer_probability>  (11) 
1

>  <r_epik_Ionization_Penalty>  (11) 
  0.0029

>  <r_epik_Ionization_Penalty_Charging>  (11) 
  0.0001

>  <r_epik_Ionization_Penalty_Neutral>  (11) 
  0.0029

>  <r_epik_State_Penalty>  (11) 
 -0.0000

>  <r_epik_Charging_Adjusted_Penalty>  (11) 
9.21585e-05

>  <i_epik_Tot_Q>  (11) 
-2

>  <i_epik_Tot_abs_Q>  (11) 
2

>  <s_lp_Force_Field>  (11) 
S-OPLS

>  <r_lp_Energy>  (11) 
53.8116

>  <b_lp_Chiralities_Consistent>  (11) 
1

>  <s_lp_Variant>  (11) 
lig_23475-1

>  <s_i_glide_gridfile>  (11) 
glide-grid_PTP1B-2QBS

>  <i_i_glide_lignum>  (11) 
14

>  <i_i_glide_rotatable_bonds>  (11) 
7

>  <r_i_docking_score>  (11) 
-8.53786167727021

>  <r_i_glide_ligand_efficiency>  (11) 
-0.328379295279624

>  <r_i_glide_ligand_efficiency_sa>  (11) 
-0.972822370155751

>  <r_i_glide_ligand_efficiency_ln>  (11) 
-2.00508879989774

>  <r_i_glide_gscore>  (11) 
-8.53786167727021

>  <r_i_glide_lipo>  (11) 
-1.46264311040636

>  <r_i_glide_hbond>  (11) 
-1.39396555092955

>  <r_i_glide_metal>  (11) 
-0

>  <r_i_glide_rewards>  (11) 
-0.405345250930572

>  <r_i_glide_evdw>  (11) 
-38.3296585083008

>  <r_i_glide_ecoul>  (11) 
-29.3968448638916

>  <r_i_glide_erotb>  (11) 
0.726909335371305

>  <r_i_glide_esite>  (11) 
-0.0863341749599958

>  <r_i_glide_emodel>  (11) 
-130.902096180358

>  <r_i_glide_energy>  (11) 
-67.7265033721924

>  <r_i_glide_einternal>  (11) 
0.200209811329842

>  <i_i_glide_confnum>  (11) 
4

>  <i_i_glide_posenum>  (11) 
1

>  <r_i_glide_eff_state_penalty>  (11) 
-0

>  <r_i_glide_rmsd>  (11) 
0.103428384595142

>  <s_glide_core_constrain_type>  (11) 
snapped_core_restrain

$$$$
lig_23477
     RDKit          3D

 43 45  0  0  1  0  0  0  0  0999 V2000
   44.4496    8.8875   -0.1057 H   0  0  0  0  0  0  0  0  0  0  0  0
   45.2182    9.5131    0.3165 C   0  0  0  0  0  0  0  0  0  0  0  0
   44.9500   10.8710    0.5855 C   0  0  0  0  0  0  0  0  0  0  0  0
   45.9467   11.7021    1.1445 C   0  0  0  0  0  0  0  0  0  0  0  0
   47.2165   11.1391    1.4100 C   0  0  0  0  0  0  0  0  0  0  0  0
   47.4810    9.7720    1.1985 C   0  0  0  0  0  0  0  0  0  0  0  0
   46.4694    8.9535    0.6433 C   0  0  0  0  0  0  0  0  0  0  0  0
   46.6357    7.9025    0.4580 H   0  0  0  0  0  0  0  0  0  0  0  0
   48.7524    9.2978    1.5562 N   0  0  0  0  0  0  0  0  0  0  0  0
   49.3747    9.9676    1.9988 H   0  0  0  0  0  0  0  0  0  0  0  0
   48.9808    7.8943    1.8888 C   0  0  0  0  0  0  0  0  0  0  0  0
   50.4712    7.6635    2.1722 C   0  0  0  0  0  0  0  0  0  0  0  0
   50.7267    6.2217    2.6343 C   0  0  0  0  0  0  0  0  0  0  0  0
   49.9481    5.9333    3.7905 O   0  0  0  0  0  0  0  0  0  0  0  0
   48.5515    5.9974    3.5290 C   0  0  0  0  0  0  0  0  0  0  0  0
   48.1657    7.4302    3.1157 C   0  0  0  0  0  0  0  0  0  0  0  0
   48.3363    8.1026    3.9572 H   0  0  0  0  0  0  0  0  0  0  0  0
   47.0980    7.4565    2.9001 H   0  0  0  0  0  0  0  0  0  0  0  0
   48.2819    5.2753    2.7533 H   0  0  0  0  0  0  0  0  0  0  0  0
   48.0083    5.7076    4.4316 H   0  0  0  0  0  0  0  0  0  0  0  0
   50.5049    5.5037    1.8421 H   0  0  0  0  0  0  0  0  0  0  0  0
   51.7793    6.1038    2.8905 H   0  0  0  0  0  0  0  0  0  0  0  0
   51.0694    7.8808    1.2866 H   0  0  0  0  0  0  0  0  0  0  0  0
   50.8065    8.3484    2.9498 H   0  0  0  0  0  0  0  0  0  0  0  0
   48.7104    7.2804    1.0303 H   0  0  0  0  0  0  0  0  0  0  0  0
   48.0097   11.7617    1.7945 H   0  0  0  0  0  0  0  0  0  0  0  0
   45.6829   13.1070    1.4826 C   0  0  0  0  0  0  0  0  0  0  0  0
   46.1711   13.8632    2.5153 C   0  0  0  0  0  0  0  0  0  0  0  0
   45.7338   15.2094    2.5465 C   0  0  0  0  0  0  0  0  0  0  0  0
   44.8458   15.4911    1.5407 C   0  0  0  0  0  0  0  0  0  0  0  0
   44.5832   14.0795    0.5209 S   0  0  0  0  0  0  0  0  0  0  0  0
   44.1026   16.7376    1.2261 C   0  0  0  0  0  0  0  0  0  0  0  0
   43.5231   16.8514    0.1263 O   0  0  0  0  0  0  0  0  0  0  0  0
   44.0785   17.6601    2.0745 O   0  0  0  0  0  0  0  0  0  0  0  0
   46.0789   16.0707    3.5187 O   0  0  0  0  0  0  0  0  0  0  0  0
   47.2964   16.7595    3.3459 C   0  0  0  0  0  0  0  0  0  0  0  0
   47.1751   17.5206    2.5735 H   0  0  0  0  0  0  0  0  0  0  0  0
   48.0910   16.0761    3.0371 H   0  0  0  0  0  0  0  0  0  0  0  0
   47.6794   17.4044    4.6778 C   0  0  0  0  0  0  0  0  0  0  0  0
   48.7715   18.0166    4.7179 O   0  0  0  0  0  0  0  0  0  0  0  0
   46.8795   17.2734    5.6407 O   0  0  0  0  0  0  0  0  0  0  0  0
   47.2789   13.2120    3.9167 Br  0  0  0  0  0  0  0  0  0  0  0  0
   43.9683   11.2660    0.3674 H   0  0  0  0  0  0  0  0  0  0  0  0
  1  2  1  0
  2  7  2  0
  2  3  1  0
  3  4  2  0
  3 43  1  0
  4  5  1  0
  4 27  1  0
  5  6  2  0
  5 26  1  0
  6  7  1  0
  6  9  1  0
  7  8  1  0
  9 10  1  0
  9 11  1  0
 11 16  1  0
 11 12  1  0
 11 25  1  0
 12 13  1  0
 12 23  1  0
 12 24  1  0
 13 14  1  0
 13 21  1  0
 13 22  1  0
 14 15  1  0
 15 16  1  0
 15 19  1  0
 15 20  1  0
 16 17  1  0
 16 18  1  0
 27 31  1  0
 27 28  2  0
 28 29  1  0
 28 42  1  0
 29 30  2  0
 29 35  1  0
 30 31  1  0
 30 32  1  0
 32 33  2  0
 32 34  1  0
 35 36  1  0
 36 37  1  0
 36 38  1  0
 36 39  1  0
 39 40  2  0
 39 41  1  0
M  CHG  2  34  -1  41  -1
M  END
>  <s_m_source_file>  (12) 
ligprep_ptp1b.smi

>  <i_m_source_file_index>  (12) 
16

>  <i_lp_mmshare_version>  (12) 
53161

>  <i_f3d_flags>  (12) 
0

>  <s_epik_input>  (12) 
Tz1DKFtPSF0pW0NIMl1PYyhjKHMxKUMoPU8pW09IXSljKEJyKWMxLWMyW2NIXVtjSF1bY0hdYyhbY0hdMilbTkhdW0NIXTNbQ0gyXVtDSDJdT1tDSDJdW0NIMl0z

>  <s_epik_cmdline>  (12) 
J2VwaWtfcHl0aG9uJywgJy1waHQnLCAnMC4wJywgJy1waCcsICc3LjQnLCAnLXRuJywgJzgnLCAnLW1hJywgJzUwMCcsICctaW1hZScsICc8aW5maWxlLm1hZT4nLCAnLW9tYWUnLCAnPG91dGZpbGUubWFlPic=

>  <r_lp_tautomer_probability>  (12) 
1

>  <r_epik_Ionization_Penalty>  (12) 
  0.0006

>  <r_epik_Ionization_Penalty_Charging>  (12) 
  0.0001

>  <r_epik_Ionization_Penalty_Neutral>  (12) 
  0.0005

>  <r_epik_State_Penalty>  (12) 
 -0.0000

>  <r_epik_Charging_Adjusted_Penalty>  (12) 
9.21585e-05

>  <i_epik_Tot_Q>  (12) 
-2

>  <i_epik_Tot_abs_Q>  (12) 
2

>  <s_lp_Force_Field>  (12) 
S-OPLS

>  <r_lp_Energy>  (12) 
45.9173

>  <b_lp_Chiralities_Consistent>  (12) 
1

>  <s_lp_Variant>  (12) 
lig_23477-1

>  <s_i_glide_gridfile>  (12) 
glide-grid_PTP1B-2QBS

>  <i_i_glide_lignum>  (12) 
16

>  <i_i_glide_rotatable_bonds>  (12) 
7

>  <r_i_docking_score>  (12) 
-8.31879222407798

>  <r_i_glide_ligand_efficiency>  (12) 
-0.308103415706592

>  <r_i_glide_ligand_efficiency_sa>  (12) 
-0.924310246104317

>  <r_i_glide_ligand_efficiency_ln>  (12) 
-1.936477683757

>  <r_i_glide_gscore>  (12) 
-8.31879222407798

>  <r_i_glide_lipo>  (12) 
-1.30567171011442

>  <r_i_glide_hbond>  (12) 
-1.34776987378695

>  <r_i_glide_metal>  (12) 
-0

>  <r_i_glide_rewards>  (12) 
-0.300372268581733

>  <r_i_glide_evdw>  (12) 
-39.2089309692383

>  <r_i_glide_ecoul>  (12) 
-29.9802360534668

>  <r_i_glide_erotb>  (12) 
0.681065901974004

>  <r_i_glide_esite>  (12) 
-0.0855977251069754

>  <r_i_glide_emodel>  (12) 
-132.007735516991

>  <r_i_glide_energy>  (12) 
-69.1891670227051

>  <r_i_glide_einternal>  (12) 
0.120203487575054

>  <i_i_glide_confnum>  (12) 
1

>  <i_i_glide_posenum>  (12) 
1

>  <r_i_glide_eff_state_penalty>  (12) 
-0

>  <r_i_glide_rmsd>  (12) 
0.0971821415396639

>  <s_glide_core_constrain_type>  (12) 
snapped_core_restrain

$$$$
lig_23472
     RDKit          3D

 42 44  0  0  1  0  0  0  0  0999 V2000
   44.4179    8.8980   -0.1060 H   0  0  0  0  0  0  0  0  0  0  0  0
   45.1976    9.5155    0.3183 C   0  0  0  0  0  0  0  0  0  0  0  0
   44.9630   10.8805    0.5719 C   0  0  0  0  0  0  0  0  0  0  0  0
   45.9721   11.6859    1.1403 C   0  0  0  0  0  0  0  0  0  0  0  0
   47.2297   11.0928    1.4203 C   0  0  0  0  0  0  0  0  0  0  0  0
   47.4661    9.7174    1.2100 C   0  0  0  0  0  0  0  0  0  0  0  0
   46.4290    8.9322    0.6596 C   0  0  0  0  0  0  0  0  0  0  0  0
   46.5315    7.8694    0.5094 H   0  0  0  0  0  0  0  0  0  0  0  0
   48.7127    9.1951    1.5916 N   0  0  0  0  0  0  0  0  0  0  0  0
   49.2780    9.8341    2.1389 H   0  0  0  0  0  0  0  0  0  0  0  0
   49.5531    7.7452    1.0996 S   0  0  0  0  0  0  0  0  0  0  0  0
   48.6180    6.8956    0.3503 O   0  0  0  0  0  0  0  0  0  0  0  0
   50.8062    8.1980    0.4793 O   0  0  0  0  0  0  0  0  0  0  0  0
   49.9402    6.9483    2.6484 C   0  0  0  0  0  0  0  0  0  0  0  0
   51.2713    6.9422    3.1180 C   0  0  0  0  0  0  0  0  0  0  0  0
   51.5829    6.2668    4.3129 C   0  0  0  0  0  0  0  0  0  0  0  0
   50.5690    5.6030    5.0335 C   0  0  0  0  0  0  0  0  0  0  0  0
   49.2362    5.6336    4.5682 C   0  0  0  0  0  0  0  0  0  0  0  0
   48.9161    6.3032    3.3724 C   0  0  0  0  0  0  0  0  0  0  0  0
   47.8975    6.3155    3.0084 H   0  0  0  0  0  0  0  0  0  0  0  0
   48.4571    5.1236    5.1180 H   0  0  0  0  0  0  0  0  0  0  0  0
   50.8789    4.9348    6.1693 F   0  0  0  0  0  0  0  0  0  0  0  0
   52.6007    6.2552    4.6661 H   0  0  0  0  0  0  0  0  0  0  0  0
   52.0551    7.4367    2.5614 H   0  0  0  0  0  0  0  0  0  0  0  0
   48.0326   11.7004    1.8194 H   0  0  0  0  0  0  0  0  0  0  0  0
   45.7185   13.0919    1.4698 C   0  0  0  0  0  0  0  0  0  0  0  0
   46.1918   13.8476    2.5137 C   0  0  0  0  0  0  0  0  0  0  0  0
   45.7480   15.1931    2.5398 C   0  0  0  0  0  0  0  0  0  0  0  0
   44.8715   15.4769    1.5272 C   0  0  0  0  0  0  0  0  0  0  0  0
   44.6294   14.0676    0.5014 S   0  0  0  0  0  0  0  0  0  0  0  0
   44.1210   16.7151    1.2155 C   0  0  0  0  0  0  0  0  0  0  0  0
   43.5446   16.8395    0.1147 O   0  0  0  0  0  0  0  0  0  0  0  0
   44.0786   17.6308    2.0749 O   0  0  0  0  0  0  0  0  0  0  0  0
   46.0787   16.0503    3.5184 O   0  0  0  0  0  0  0  0  0  0  0  0
   47.2999   16.7499    3.3484 C   0  0  0  0  0  0  0  0  0  0  0  0
   47.1811   17.5195    2.5819 H   0  0  0  0  0  0  0  0  0  0  0  0
   48.0945   16.0734    3.0469 H   0  0  0  0  0  0  0  0  0  0  0  0
   47.6791   17.3985    4.6813 C   0  0  0  0  0  0  0  0  0  0  0  0
   48.7695   18.0128    4.7178 O   0  0  0  0  0  0  0  0  0  0  0  0
   46.8792   17.2728    5.6469 O   0  0  0  0  0  0  0  0  0  0  0  0
   47.2836   13.1887    3.9199 Br  0  0  0  0  0  0  0  0  0  0  0  0
   43.9896   11.2930    0.3436 H   0  0  0  0  0  0  0  0  0  0  0  0
  1  2  1  0
  2  7  2  0
  2  3  1  0
  3  4  2  0
  3 42  1  0
  4  5  1  0
  4 26  1  0
  5  6  2  0
  5 25  1  0
  6  7  1  0
  6  9  1  0
  7  8  1  0
  9 10  1  0
  9 11  1  0
 11 12  2  0
 11 13  2  0
 11 14  1  0
 14 19  1  0
 14 15  2  0
 15 16  1  0
 15 24  1  0
 16 17  2  0
 16 23  1  0
 17 18  1  0
 17 22  1  0
 18 19  2  0
 18 21  1  0
 19 20  1  0
 26 30  1  0
 26 27  2  0
 27 28  1  0
 27 41  1  0
 28 29  2  0
 28 34  1  0
 29 30  1  0
 29 31  1  0
 31 32  2  0
 31 33  1  0
 34 35  1  0
 35 36  1  0
 35 37  1  0
 35 38  1  0
 38 39  2  0
 38 40  1  0
M  CHG  2  33  -1  40  -1
M  END
>  <s_m_source_file>  (13) 
ligprep_ptp1b.smi

>  <i_m_source_file_index>  (13) 
11

>  <i_lp_mmshare_version>  (13) 
53161

>  <i_f3d_flags>  (13) 
0

>  <s_epik_input>  (13) 
Tz1DKFtPSF0pW0NIMl1PYyhjKHMxKUMoPU8pW09IXSljKEJyKWMxLWMyW2NIXVtjSF1bY0hdYyhbY0hdMilbTkhdUyg9TykoPU8pYzNbY0hdW2NIXWMoRilbY0hdW2NIXTM=

>  <s_epik_cmdline>  (13) 
J2VwaWtfcHl0aG9uJywgJy1waHQnLCAnMC4wJywgJy1waCcsICc3LjQnLCAnLXRuJywgJzgnLCAnLW1hJywgJzUwMCcsICctaW1hZScsICc8aW5maWxlLm1hZT4nLCAnLW9tYWUnLCAnPG91dGZpbGUubWFlPic=

>  <r_epik_Ionization_Penalty>  (13) 
  0.0488

>  <r_epik_Ionization_Penalty_Charging>  (13) 
  0.0001

>  <r_epik_Ionization_Penalty_Neutral>  (13) 
  0.0487

>  <r_epik_State_Penalty>  (13) 
  0.0416

>  <r_epik_Charging_Adjusted_Penalty>  (13) 
0.0416423

>  <i_epik_Tot_Q>  (13) 
-2

>  <i_epik_Tot_abs_Q>  (13) 
2

>  <s_lp_Force_Field>  (13) 
S-OPLS

>  <r_lp_Energy>  (13) 
50.8479

>  <b_lp_Chiralities_Consistent>  (13) 
1

>  <s_lp_Variant>  (13) 
lig_23472-1

>  <s_i_glide_gridfile>  (13) 
glide-grid_PTP1B-2QBS

>  <i_i_glide_lignum>  (13) 
11

>  <i_i_glide_rotatable_bonds>  (13) 
8

>  <r_i_docking_score>  (13) 
-7.91759332722808

>  <r_i_glide_ligand_efficiency>  (13) 
-0.255406236362196

>  <r_i_glide_ligand_efficiency_sa>  (13) 
-0.802328208489911

>  <r_i_glide_ligand_efficiency_ln>  (13) 
-1.78565994038484

>  <r_i_glide_gscore>  (13) 
-7.95919332722808

>  <r_i_glide_lipo>  (13) 
-1.50418851628517

>  <r_i_glide_hbond>  (13) 
-1.26890264320291

>  <r_i_glide_metal>  (13) 
-0

>  <r_i_glide_rewards>  (13) 
0.568431946392031

>  <r_i_glide_evdw>  (13) 
-43.7525062561035

>  <r_i_glide_ecoul>  (13) 
-31.9498100280762

>  <r_i_glide_erotb>  (13) 
0.590427696407987

>  <r_i_glide_esite>  (13) 
-0.157336497734848

>  <r_i_glide_emodel>  (13) 
-135.820687835634

>  <r_i_glide_energy>  (13) 
-75.7023162841797

>  <r_i_glide_einternal>  (13) 
3.26789021492004

>  <i_i_glide_confnum>  (13) 
3

>  <i_i_glide_posenum>  (13) 
7

>  <r_i_glide_eff_state_penalty>  (13) 
0.0416

>  <r_i_glide_rmsd>  (13) 
0.088150984147681

>  <s_glide_core_constrain_type>  (13) 
snapped_core_restrain

$$$$
lig_ejm_31
     RDKit          3D

 32 33  0  0  1  0  0  0  0  0999 V2000
   -4.7643   -2.8400  -16.5091 H   0  0  0  0  0  0  0  0  0  0  0  0
   -5.3542   -3.7038  -16.2347 C   0  0  0  0  0  0  0  0  0  0  0  0
   -4.7674   -4.9795  -16.2123 C   0  0  0  0  0  0  0  0  0  0  0  0
   -5.5290   -6.1026  -15.8438 C   0  0  0  0  0  0  0  0  0  0  0  0
   -6.8923   -5.9587  -15.4780 C   0  0  0  0  0  0  0  0  0  0  0  0
   -7.4820   -4.6699  -15.5255 C   0  0  0  0  0  0  0  0  0  0  0  0
   -6.7115   -3.5548  -15.9030 C   0  0  0  0  0  0  0  0  0  0  0  0
   -7.1638   -2.5769  -15.9396 H   0  0  0  0  0  0  0  0  0  0  0  0
   -9.1561   -4.4143  -15.1653 Cl  0  0  0  0  0  0  0  0  0  0  0  0
   -7.7049   -7.1425  -15.0386 C   0  0  0  0  0  0  0  0  0  0  0  0
   -8.1157   -7.2179  -13.8805 O   0  0  0  0  0  0  0  0  0  0  0  0
   -7.9064   -8.0562  -16.0049 N   0  0  0  0  0  0  0  0  0  0  0  0
   -7.4327   -7.8743  -16.8760 H   0  0  0  0  0  0  0  0  0  0  0  0
   -8.7268   -9.2125  -16.0105 C   0  0  0  0  0  0  0  0  0  0  0  0
   -9.5827   -9.5982  -14.9587 C   0  0  0  0  0  0  0  0  0  0  0  0
  -10.3835  -10.7354  -15.1418 C   0  0  0  0  0  0  0  0  0  0  0  0
  -10.3600  -11.4950  -16.2564 N   0  0  0  0  0  0  0  0  0  0  0  0
   -9.5337  -11.1511  -17.2721 C   0  0  0  0  0  0  0  0  0  0  0  0
   -8.7102  -10.0011  -17.1769 C   0  0  0  0  0  0  0  0  0  0  0  0
   -8.0729   -9.6943  -17.9922 H   0  0  0  0  0  0  0  0  0  0  0  0
   -9.5619  -11.9452  -18.4509 N   0  0  0  0  0  0  0  0  0  0  0  0
  -10.3819  -12.5322  -18.5333 H   0  0  0  0  0  0  0  0  0  0  0  0
   -8.6681  -12.0307  -19.4565 C   0  0  0  0  0  0  0  0  0  0  0  0
   -7.5932  -11.4361  -19.5018 O   0  0  0  0  0  0  0  0  0  0  0  0
   -9.0408  -12.9588  -20.6094 C   0  0  0  0  0  0  0  0  0  0  0  0
   -9.1375  -13.9845  -20.2608 H   0  0  0  0  0  0  0  0  0  0  0  0
   -8.2771  -12.9370  -21.3872 H   0  0  0  0  0  0  0  0  0  0  0  0
   -9.9855  -12.6633  -21.0634 H   0  0  0  0  0  0  0  0  0  0  0  0
  -11.0678  -11.0469  -14.3675 H   0  0  0  0  0  0  0  0  0  0  0  0
   -9.6650   -9.0396  -14.0398 H   0  0  0  0  0  0  0  0  0  0  0  0
   -4.7465   -7.6388  -15.8551 Cl  0  0  0  0  0  0  0  0  0  0  0  0
   -3.7260   -5.0929  -16.4760 H   0  0  0  0  0  0  0  0  0  0  0  0
  1  2  1  0
  2  7  2  0
  2  3  1  0
  3  4  2  0
  3 32  1  0
  4  5  1  0
  4 31  1  0
  5  6  2  0
  5 10  1  0
  6  7  1  0
  6  9  1  0
  7  8  1  0
 10 11  2  0
 10 12  1  0
 12 13  1  0
 12 14  1  0
 14 19  1  0
 14 15  2  0
 15 16  1  0
 15 30  1  0
 16 17  2  0
 16 29  1  0
 17 18  1  0
 18 19  2  0
 18 21  1  0
 19 20  1  0
 21 22  1  0
 21 23  1  0
 23 24  2  0
 23 25  1  0
 25 26  1  0
 25 27  1  0
 25 28  1  0
M  END
>  <s_m_source_file>  (14) 
ligprep_tyk2.smi

>  <i_m_source_file_index>  (14) 
1

>  <i_lp_mmshare_version>  (14) 
53161

>  <i_f3d_flags>  (14) 
0

>  <s_epik_input>  (14) 
Q2xjMVtjSF1bY0hdW2NIXWMoQ2wpYzFDKD1PKVtOSF1jMltjSF1bY0hdbmMoW2NIXTIpW05IXUMoPU8pW0NIM10=

>  <s_epik_cmdline>  (14) 
J2VwaWtfcHl0aG9uJywgJy1waHQnLCAnMC4wJywgJy1waCcsICc3LjQnLCAnLXRuJywgJzgnLCAnLW1hJywgJzUwMCcsICctaW1hZScsICc8aW5maWxlLm1hZT4nLCAnLW9tYWUnLCAnPG91dGZpbGUubWFlPic=

>  <r_lp_tautomer_probability>  (14) 
1

>  <r_epik_Ionization_Penalty>  (14) 
  0.0035

>  <r_epik_Ionization_Penalty_Charging>  (14) 
  0.0000

>  <r_epik_Ionization_Penalty_Neutral>  (14) 
  0.0035

>  <r_epik_State_Penalty>  (14) 
 -0.0000

>  <r_epik_Charging_Adjusted_Penalty>  (14) 
0

>  <i_epik_Tot_Q>  (14) 
0

>  <i_epik_Tot_abs_Q>  (14) 
0

>  <s_lp_Force_Field>  (14) 
S-OPLS

>  <r_lp_Energy>  (14) 
27.8362

>  <b_lp_Chiralities_Consistent>  (14) 
1

>  <s_lp_Variant>  (14) 
lig_ejm_31-1

>  <s_i_glide_gridfile>  (14) 
glide-grid_TYK2-4GIH

>  <i_i_glide_lignum>  (14) 
1

>  <i_i_glide_rotatable_bonds>  (14) 
5

>  <r_i_docking_score>  (14) 
-9.61553139973376

>  <r_i_glide_ligand_efficiency>  (14) 
-0.45788244760637

>  <r_i_glide_ligand_efficiency_sa>  (14) 
-1.26326295335976

>  <r_i_glide_ligand_efficiency_ln>  (14) 
-2.37742070857348

>  <r_i_glide_gscore>  (14) 
-9.61553139973376

>  <r_i_glide_lipo>  (14) 
-3.54764816894495

>  <r_i_glide_hbond>  (14) 
-0.560967309882515

>  <r_i_glide_metal>  (14) 
-0

>  <r_i_glide_rewards>  (14) 
-2.51653923167398

>  <r_i_glide_evdw>  (14) 
-47.69189453125

>  <r_i_glide_ecoul>  (14) 
-8.1962194442749

>  <r_i_glide_erotb>  (14) 
0.623650953971416

>  <r_i_glide_esite>  (14) 
0

>  <r_i_glide_emodel>  (14) 
-95.4345671907903

>  <r_i_glide_energy>  (14) 
-55.8881139755249

>  <r_i_glide_einternal>  (14) 
8.54014842843753e-07

>  <i_i_glide_confnum>  (14) 
1

>  <i_i_glide_posenum>  (14) 
1

>  <r_i_glide_eff_state_penalty>  (14) 
-0

>  <r_i_glide_rmsd>  (14) 
0.052420677601671

>  <s_glide_core_constrain_type>  (14) 
snapped_core_restrain

$$$$
lig_ejm_43
     RDKit          3D

 38 39  0  0  1  0  0  0  0  0999 V2000
   -4.7829   -2.7664  -16.5106 H   0  0  0  0  0  0  0  0  0  0  0  0
   -5.3655   -3.6294  -16.2314 C   0  0  0  0  0  0  0  0  0  0  0  0
   -4.7613   -4.8968  -16.2097 C   0  0  0  0  0  0  0  0  0  0  0  0
   -5.5168   -6.0309  -15.8511 C   0  0  0  0  0  0  0  0  0  0  0  0
   -6.8819   -5.9047  -15.5001 C   0  0  0  0  0  0  0  0  0  0  0  0
   -7.4850   -4.6267  -15.5391 C   0  0  0  0  0  0  0  0  0  0  0  0
   -6.7260   -3.4992  -15.8965 C   0  0  0  0  0  0  0  0  0  0  0  0
   -7.1790   -2.5196  -15.9253 H   0  0  0  0  0  0  0  0  0  0  0  0
   -9.1629   -4.3841  -15.1947 Cl  0  0  0  0  0  0  0  0  0  0  0  0
   -7.6921   -7.1092  -15.0922 C   0  0  0  0  0  0  0  0  0  0  0  0
   -8.1050   -7.2064  -13.9363 O   0  0  0  0  0  0  0  0  0  0  0  0
   -7.8801   -8.0181  -16.0656 N   0  0  0  0  0  0  0  0  0  0  0  0
   -7.4055   -7.8145  -16.9345 H   0  0  0  0  0  0  0  0  0  0  0  0
   -8.6994   -9.1763  -16.0859 C   0  0  0  0  0  0  0  0  0  0  0  0
   -9.5528   -9.5798  -15.0305 C   0  0  0  0  0  0  0  0  0  0  0  0
  -10.3589  -10.7178  -15.2152 C   0  0  0  0  0  0  0  0  0  0  0  0
  -10.3623  -11.4572  -16.3408 N   0  0  0  0  0  0  0  0  0  0  0  0
   -9.5356  -11.1058  -17.3528 C   0  0  0  0  0  0  0  0  0  0  0  0
   -8.7090   -9.9562  -17.2628 C   0  0  0  0  0  0  0  0  0  0  0  0
   -8.0898   -9.6534  -18.0868 H   0  0  0  0  0  0  0  0  0  0  0  0
   -9.5611  -11.9163  -18.5193 N   0  0  0  0  0  0  0  0  0  0  0  0
  -10.3872  -12.4907  -18.6096 H   0  0  0  0  0  0  0  0  0  0  0  0
   -8.6263  -12.0716  -19.4767 C   0  0  0  0  0  0  0  0  0  0  0  0
   -7.5511  -11.4671  -19.5315 O   0  0  0  0  0  0  0  0  0  0  0  0
   -8.9514  -13.1268  -20.5456 C   0  0  0  0  0  0  0  0  0  0  0  0
   -9.8835  -13.6515  -20.3011 H   0  0  0  0  0  0  0  0  0  0  0  0
   -7.7905  -14.1466  -20.7376 C   0  0  0  0  0  0  0  0  0  0  0  0
   -7.5491  -14.7157  -19.8481 H   0  0  0  0  0  0  0  0  0  0  0  0
   -6.8972  -13.6165  -21.1000 H   0  0  0  0  0  0  0  0  0  0  0  0
   -8.0434  -14.8410  -21.5489 H   0  0  0  0  0  0  0  0  0  0  0  0
   -9.0860  -12.5240  -21.9414 C   0  0  0  0  0  0  0  0  0  0  0  0
   -9.9622  -11.9192  -21.9531 H   0  0  0  0  0  0  0  0  0  0  0  0
   -8.2188  -11.9174  -22.2245 H   0  0  0  0  0  0  0  0  0  0  0  0
   -9.2568  -13.2931  -22.6913 H   0  0  0  0  0  0  0  0  0  0  0  0
  -11.0374  -11.0340  -14.4288 H   0  0  0  0  0  0  0  0  0  0  0  0
   -9.6353   -9.0318  -14.1086 H   0  0  0  0  0  0  0  0  0  0  0  0
   -4.7269   -7.5578  -15.8529 Cl  0  0  0  0  0  0  0  0  0  0  0  0
   -3.7160   -5.0085  -16.4680 H   0  0  0  0  0  0  0  0  0  0  0  0
  1  2  1  0
  2  7  2  0
  2  3  1  0
  3  4  2  0
  3 38  1  0
  4  5  1  0
  4 37  1  0
  5  6  2  0
  5 10  1  0
  6  7  1  0
  6  9  1  0
  7  8  1  0
 10 11  2  0
 10 12  1  0
 12 13  1  0
 12 14  1  0
 14 19  1  0
 14 15  2  0
 15 16  1  0
 15 36  1  0
 16 17  2  0
 16 35  1  0
 17 18  1  0
 18 19  2  0
 18 21  1  0
 19 20  1  0
 21 22  1  0
 21 23  1  0
 23 24  2  0
 23 25  1  0
 25 26  1  0
 25 27  1  0
 25 31  1  0
 27 28  1  0
 27 29  1  0
 27 30  1  0
 31 32  1  0
 31 33  1  0
 31 34  1  0
M  END
>  <s_m_source_file>  (15) 
ligprep_tyk2.smi

>  <i_m_source_file_index>  (15) 
3

>  <i_lp_mmshare_version>  (15) 
53161

>  <i_f3d_flags>  (15) 
0

>  <s_epik_input>  (15) 
Q2xjMVtjSF1bY0hdW2NIXWMoQ2wpYzFDKD1PKVtOSF1jMltjSF1bY0hdbmMoW2NIXTIpW05IXUMoPU8pW0NIXShbQ0gzXSlbQ0gzXQ==

>  <s_epik_cmdline>  (15) 
J2VwaWtfcHl0aG9uJywgJy1waHQnLCAnMC4wJywgJy1waCcsICc3LjQnLCAnLXRuJywgJzgnLCAnLW1hJywgJzUwMCcsICctaW1hZScsICc8aW5maWxlLm1hZT4nLCAnLW9tYWUnLCAnPG91dGZpbGUubWFlPic=

>  <r_lp_tautomer_probability>  (15) 
1

>  <r_epik_Ionization_Penalty>  (15) 
  0.0034

>  <r_epik_Ionization_Penalty_Charging>  (15) 
  0.0000

>  <r_epik_Ionization_Penalty_Neutral>  (15) 
  0.0034

>  <r_epik_State_Penalty>  (15) 
 -0.0000

>  <r_epik_Charging_Adjusted_Penalty>  (15) 
0

>  <i_epik_Tot_Q>  (15) 
0

>  <i_epik_Tot_abs_Q>  (15) 
0

>  <s_lp_Force_Field>  (15) 
S-OPLS

>  <r_lp_Energy>  (15) 
32.6902

>  <b_lp_Chiralities_Consistent>  (15) 
1

>  <s_lp_Variant>  (15) 
lig_ejm_43-1

>  <s_i_glide_gridfile>  (15) 
glide-grid_TYK2-4GIH

>  <i_i_glide_lignum>  (15) 
3

>  <i_i_glide_rotatable_bonds>  (15) 
6

>  <r_i_docking_score>  (15) 
-9.26699162516251

>  <r_i_glide_ligand_efficiency>  (15) 
-0.402912679354892

>  <r_i_glide_ligand_efficiency_sa>  (15) 
-1.14583006338332

>  <r_i_glide_ligand_efficiency_ln>  (15) 
-2.2408426033986

>  <r_i_glide_gscore>  (15) 
-9.26699162516251

>  <r_i_glide_lipo>  (15) 
-3.4464840111606

>  <r_i_glide_hbond>  (15) 
-0.566053744360385

>  <r_i_glide_metal>  (15) 
-0

>  <r_i_glide_rewards>  (15) 
-2.39536251971087

>  <r_i_glide_evdw>  (15) 
-45.7821807861328

>  <r_i_glide_ecoul>  (15) 
-8.10685539245605

>  <r_i_glide_erotb>  (15) 
0.646045998244398

>  <r_i_glide_esite>  (15) 
0

>  <r_i_glide_emodel>  (15) 
-59.5528629401343

>  <r_i_glide_energy>  (15) 
-53.8890361785889

>  <r_i_glide_einternal>  (15) 
5.48275456822012e-05

>  <i_i_glide_confnum>  (15) 
1

>  <i_i_glide_posenum>  (15) 
2

>  <r_i_glide_eff_state_penalty>  (15) 
-0

>  <r_i_glide_rmsd>  (15) 
0.0982556592093266

>  <s_glide_core_constrain_type>  (15) 
snapped_core_restrain

$$$$
